@<TRIPOS>MOLECULE

42 41 1 0 0
SMALL
NO_CHARGES


@<TRIPOS>ATOM
      1 C16        10.3380   53.9990   57.9800 C.3       1 non    0.1800
      2 C15         8.8820   54.0390   57.6140 C.3       1 non    0.2130
      3 O2          8.3850   55.2660   57.2070 O.3       1 non   -0.3190
      4 C14         7.1610   55.8120   57.5020 C.2       1 non    0.2580
      5 O1          6.6270   55.5540   58.6030 O.2       1 non   -0.2650
      6 C13         6.4300   56.7120   56.5400 C.3       1 non    0.1110
      7 C12         7.4690   57.3260   55.6650 C.3       1 non    0.0100
      8 C11         8.0180   58.6540   56.1770 C.3       1 non    0.0000
      9 C10         7.5230   59.8070   55.3990 C.3       1 non    0.0000
     10 C9          8.2290   61.0850   55.5750 C.3       1 non    0.0000
     11 C8          8.1440   61.9850   56.7040 C.3       1 non    0.0000
     12 C7          8.8860   62.0260   57.9400 C.3       1 non    0.0000
     13 C6         10.0280   61.1550   58.2370 C.3       1 non    0.0000
     14 C5          9.8810   60.3790   59.5370 C.3       1 non    0.0000
     15 C4          9.9650   58.8880   59.3500 C.3       1 non    0.0000
     16 C3          8.7860   58.1630   59.9310 C.3       1 non   -0.0000
     17 C2          7.4820   58.8770   59.6950 C.3       1 non   -0.0050
     18 C1          6.7040   58.8660   60.9910 C.3       1 non    0.0050
     19 C17        10.5950   54.6880   59.3130 C.3       1 non    0.2170
     20 O3          9.4940   54.6290   60.1470 O.3       1 non   -0.2800
     21 P1          9.7550   53.3160   61.2150 P.3       1 non    0.4220
     22 O4          8.8310   51.9990   60.7570 O.co2     1 non   -0.6170
     23 O5         11.4070   52.9330   61.1120 O.co2     1 non   -0.6170
     24 O6          9.5080   53.7320   62.6540 O.co2     1 non   -0.6170
     25 O7         11.0100   54.7220   56.9330 O.3       1 non   -0.3120
     26 C18        11.6950   55.9130   57.1810 C.2       1 non    0.2590
     27 O8         11.0760   56.9790   57.1000 O.2       1 non   -0.2650
     28 C19        13.1060   55.8120   57.5230 C.3       1 non    0.1110
     29 C20        13.5360   56.7580   58.5770 C.3       1 non    0.0100
     30 C21        14.4480   57.8400   58.1770 C.3       1 non    0.0000
     31 C22        14.2710   58.5380   56.8730 C.3       1 non    0.0000
     32 C23        13.1730   59.6190   57.1320 C.3       1 non    0.0000
     33 C24        13.8550   60.9110   57.4720 C.3       1 non    0.0040
     34 C25        14.0320   61.7800   56.2300 C.3       1 non    0.0270
     35 C26        13.0740   62.8910   56.2770 C.2       1 non   -0.0310
     36 C27        11.9280   62.8500   55.6270 C.2       1 non   -0.0310
     37 C28        11.4140   61.7690   54.7850 C.3       1 non    0.0270
     38 C29        11.3050   62.3240   53.3630 C.3       1 non    0.0040
     39 C30        10.6990   61.3200   52.4420 C.3       1 non    0.0000
     40 C31        11.2450   61.4020   51.0550 C.3       1 non   -0.0000
     41 C32        10.3960   62.3460   50.2050 C.3       1 non   -0.0050
     42 C33        11.2970   62.8700   49.1010 C.3       1 non    0.0050
@<TRIPOS>BOND
     1    1    2 1
     2    1   19 1
     3    1   25 1
     4    2    3 1
     5    3    4 1
     6    4    5 2
     7    4    6 1
     8    6    7 1
     9    7    8 1
    10    8    9 1
    11    9   10 1
    12   10   11 1
    13   11   12 1
    14   12   13 1
    15   13   14 1
    16   14   15 1
    17   15   16 1
    18   16   17 1
    19   17   18 1
    20   19   20 1
    21   20   21 1
    22   21   22 1
    23   21   23 1
    24   21   24 1
    25   25   26 1
    26   26   27 2
    27   26   28 1
    28   28   29 1
    29   29   30 1
    30   30   31 1
    31   31   32 1
    32   32   33 1
    33   33   34 1
    34   34   35 1
    35   35   36 2
    36   36   37 1
    37   37   38 1
    38   38   39 1
    39   39   40 1
    40   40   41 1
    41   41   42 1
@<TRIPOS>SUBSTRUCTURE
     1 non     1 RESIDUE           4 A     non     0 ROOT
