@<TRIPOS>MOLECULE

42 41 1 0 0
SMALL
NO_CHARGES


@<TRIPOS>ATOM
      1 C17        -9.0440   64.6140   57.7320 C.3       1 non    0.1800
      2 O2         -8.3500   64.9940   56.5670 O.3       1 non   -0.3120
      3 C16        -8.8690   64.8980   55.2780 C.2       1 non    0.2590
      4 O1         -8.7220   65.9140   54.5360 O.2       1 non   -0.2650
      5 C15        -9.5530   63.6700   54.8310 C.3       1 non    0.1110
      6 C14        -8.6580   62.7300   54.1190 C.3       1 non    0.0100
      7 C13        -8.2270   61.5170   54.8700 C.3       1 non    0.0000
      8 C12        -7.1980   60.6530   54.2500 C.3       1 non    0.0000
      9 C11        -7.3380   59.1960   54.6810 C.3       1 non    0.0000
     10 C10        -8.6040   58.5690   54.1900 C.3       1 non    0.0000
     11 C9         -8.2440   57.3840   53.2980 C.3       1 non    0.0000
     12 C8         -9.1740   57.2590   52.1320 C.3       1 non    0.0000
     13 C7         -8.4740   57.4390   50.8180 C.3       1 non    0.0000
     14 C6         -6.9800   57.7560   51.1480 C.3       1 non    0.0000
     15 C5         -6.3050   58.2490   49.9330 C.3       1 non    0.0000
     16 C4         -4.9680   57.7690   49.6140 C.3       1 non    0.0000
     17 C3         -4.4410   56.4670   49.9990 C.3       1 non   -0.0000
     18 C2         -5.1590   55.2200   49.6370 C.3       1 non   -0.0050
     19 C1         -5.1890   54.2590   50.8600 C.3       1 non    0.0050
     20 C18        -9.0990   65.7650   58.6930 C.3       1 non    0.2130
     21 O3         -9.0060   67.0320   58.1030 O.3       1 non   -0.3190
     22 C19       -10.0710   67.8310   57.7640 C.2       1 non    0.2580
     23 O4        -10.3030   68.0450   56.5510 O.2       1 non   -0.2650
     24 C20       -10.9340   68.4300   58.8010 C.3       1 non    0.1110
     25 C21       -12.3320   67.9090   58.7680 C.3       1 non    0.0100
     26 C22       -12.4940   66.5440   59.3710 C.3       1 non    0.0000
     27 C23       -13.0620   65.5500   58.4220 C.3       1 non    0.0000
     28 C24       -13.2460   66.0010   57.0180 C.3       1 non    0.0000
     29 C25       -14.6570   65.7840   56.5100 C.3       1 non    0.0040
     30 C26       -14.5440   64.7860   55.3470 C.3       1 non    0.0270
     31 C27       -15.1860   63.5100   55.6740 C.2       1 non   -0.0310
     32 C28       -14.4880   62.4090   55.7810 C.2       1 non   -0.0310
     33 C29       -13.0440   62.2360   55.6080 C.3       1 non    0.0270
     34 C30       -12.6820   61.4380   54.3680 C.3       1 non    0.0030
     35 C31       -11.7140   60.3140   54.6660 C.3       1 non   -0.0040
     36 C32       -11.3880   60.3960   56.1470 C.3       1 non    0.0050
     37 C33        -8.2100   63.4700   58.3220 C.3       1 non    0.2170
     38 O5         -9.0120   62.3740   58.6100 O.3       1 non   -0.2800
     39 P1         -8.8680   61.9000   60.2230 P.3       1 non    0.4220
     40 O6        -10.0940   60.8250   60.6730 O.co2     1 non   -0.6170
     41 O7         -8.8600   63.2810   61.1740 O.co2     1 non   -0.6170
     42 O8         -7.5320   61.2060   60.3960 O.co2     1 non   -0.6170
@<TRIPOS>BOND
     1    1    2 1
     2    1   20 1
     3    1   37 1
     4    2    3 1
     5    3    4 2
     6    3    5 1
     7    5    6 1
     8    6    7 1
     9    7    8 1
    10    8    9 1
    11    9   10 1
    12   10   11 1
    13   11   12 1
    14   12   13 1
    15   13   14 1
    16   14   15 1
    17   15   16 1
    18   16   17 1
    19   17   18 1
    20   18   19 1
    21   20   21 1
    22   21   22 1
    23   22   23 2
    24   22   24 1
    25   24   25 1
    26   25   26 1
    27   26   27 1
    28   27   28 1
    29   28   29 1
    30   29   30 1
    31   30   31 1
    32   31   32 2
    33   32   33 1
    34   33   34 1
    35   34   35 1
    36   35   36 1
    37   37   38 1
    38   38   39 1
    39   39   40 1
    40   39   41 1
    41   39   42 1
@<TRIPOS>SUBSTRUCTURE
     1 non     1 RESIDUE           4 A     non     0 ROOT
