@<TRIPOS>MOLECULE

44 43 1 0 0
SMALL
NO_CHARGES


@<TRIPOS>ATOM
      1 C1          4.7730   68.1500   55.4270 C.3       1 non    0.1740
      2 C2          4.3410   69.0680   54.2670 C.3       1 non    0.2130
      3 O1          5.4280   69.8950   53.9600 O.3       1 non   -0.3190
      4 C3          6.1120   69.8620   52.7780 C.2       1 non    0.2580
      5 O2          7.1520   70.5390   52.6380 O.2       1 non   -0.2650
      6 C4          5.5770   68.9940   51.6810 C.3       1 non    0.1110
      7 C5          6.3740   67.7110   51.5370 C.3       1 non    0.0100
      8 C6          7.6010   67.9340   50.6710 C.3       1 non    0.0000
      9 C7          7.2120   68.1430   49.2240 C.3       1 non    0.0000
     10 C8          8.4020   68.3170   48.3050 C.3       1 non    0.0000
     11 C9          8.7690   66.9110   47.7940 C.3       1 non    0.0000
     12 C10        10.1940   66.8170   47.3580 C.3       1 non    0.0000
     13 C11        10.6890   65.4340   47.2590 C.3       1 non    0.0000
     14 C12        11.5950   64.9920   46.2020 C.3       1 non    0.0000
     15 C13        11.1140   64.2100   45.0520 C.3       1 non    0.0000
     16 C14        11.4330   64.8900   43.7040 C.3       1 non    0.0000
     17 C15        11.5910   66.3660   43.8110 C.3       1 non    0.0000
     18 C16        10.4260   67.0660   43.1270 C.3       1 non   -0.0000
     19 C17         9.7890   68.0740   44.0540 C.3       1 non   -0.0050
     20 C18         8.6650   68.8280   43.3950 C.3       1 non    0.0050
     21 C19         5.3220   69.0350   56.4890 C.3       1 non    0.2160
     22 O3          5.6890   68.4040   57.6630 O.3       1 non   -0.2800
     23 P1          6.8540   69.3010   58.5030 P.3       1 non    0.4220
     24 O4          8.3520   68.5570   58.5480 O.co2     1 non   -0.6170
     25 O5          6.3780   69.6980   60.0560 O.co2     1 non   -0.6170
     26 O6          7.0050   70.6140   57.7330 O.co2     1 non   -0.6170
     27 O7          5.6770   67.1600   54.9560 O.3       1 non   -0.3390
     28 C20         5.3080   65.8780   54.6680 C.2       1 non    0.2570
     29 O8          4.0070   65.7010   54.7800 O.2       1 non   -0.1910
     30 C21         6.0590   64.7060   54.2780 C.3       1 non    0.0780
     31 C22         7.5020   64.6840   54.0830 C.3       1 non    0.0060
     32 C23         8.3100   63.4780   54.1340 C.3       1 non    0.0000
     33 C24         9.4090   63.2510   53.1290 C.3       1 non    0.0000
     34 C25         9.8670   61.8280   53.1730 C.3       1 non    0.0000
     35 C26        10.0130   61.1280   54.4490 C.3       1 non    0.0000
     36 C27         9.1600   59.9950   54.8450 C.3       1 non    0.0000
     37 C28         8.3240   59.3580   53.8230 C.3       1 non    0.0000
     38 C29         7.0350   58.7630   54.4260 C.3       1 non    0.0000
     39 C30         7.0750   57.2810   54.5590 C.3       1 non    0.0000
     40 C31         6.3320   56.8880   55.8010 C.3       1 non    0.0000
     41 C32         7.2080   56.5420   56.9710 C.3       1 non    0.0000
     42 C33         6.9950   57.6620   57.9980 C.3       1 non   -0.0000
     43 C34         8.2370   58.5010   58.1340 C.3       1 non   -0.0050
     44 C35         7.8220   59.9460   58.3790 C.3       1 non    0.0050
@<TRIPOS>BOND
     1    1    2 1
     2    1   21 1
     3    1   27 1
     4    2    3 1
     5    3    4 1
     6    4    5 2
     7    4    6 1
     8    6    7 1
     9    7    8 1
    10    8    9 1
    11    9   10 1
    12   10   11 1
    13   11   12 1
    14   12   13 1
    15   13   14 1
    16   14   15 1
    17   15   16 1
    18   16   17 1
    19   17   18 1
    20   18   19 1
    21   19   20 1
    22   21   22 1
    23   22   23 1
    24   23   24 1
    25   23   25 1
    26   23   26 1
    27   27   28 1
    28   28   29 2
    29   28   30 1
    30   30   31 1
    31   31   32 1
    32   32   33 1
    33   33   34 1
    34   34   35 1
    35   35   36 1
    36   36   37 1
    37   37   38 1
    38   38   39 1
    39   39   40 1
    40   40   41 1
    41   41   42 1
    42   42   43 1
    43   43   44 1
@<TRIPOS>SUBSTRUCTURE
     1 non     1 RESIDUE           4 A     non     0 ROOT
