@<TRIPOS>MOLECULE

40 39 1 0 0
SMALL
NO_CHARGES


@<TRIPOS>ATOM
      1 C17        11.0350   59.3340   56.7860 C.3       1 non    0.1800
      2 O2         12.3310   59.0030   56.3420 O.3       1 non   -0.3120
      3 C16        12.6290   58.8320   54.9870 C.2       1 non    0.2590
      4 O1         11.9310   59.4660   54.1900 O.2       1 non   -0.2650
      5 C15        13.7320   57.9280   54.5950 C.3       1 non    0.1110
      6 C14        14.4580   58.3620   53.3760 C.3       1 non    0.0100
      7 C13        15.5040   59.4050   53.5570 C.3       1 non    0.0000
      8 C12        16.8800   58.8700   53.7540 C.3       1 non    0.0000
      9 C11        17.7970   59.0500   52.5510 C.3       1 non    0.0000
     10 C10        18.4310   57.7670   52.1400 C.3       1 non    0.0000
     11 C9         17.5920   56.5690   52.2210 C.3       1 non    0.0000
     12 C8         17.3910   55.6530   51.1060 C.3       1 non    0.0000
     13 C7         17.9510   54.2870   51.1080 C.3       1 non    0.0000
     14 C6         16.9600   53.1930   51.3090 C.3       1 non    0.0000
     15 C5         17.3050   52.2700   52.4390 C.3       1 non    0.0000
     16 C4         16.1410   51.6530   53.1420 C.3       1 non    0.0000
     17 C3         15.1720   52.7080   53.5980 C.3       1 non   -0.0000
     18 C2         15.6120   53.3320   54.8960 C.3       1 non   -0.0050
     19 C1         15.7970   54.8290   54.6750 C.3       1 non    0.0050
     20 C18        11.0410   60.3490   57.9080 C.3       1 non    0.2130
     21 O3          9.9860   60.0670   58.8020 O.3       1 non   -0.3190
     22 C19         9.2250   61.0010   59.4330 C.2       1 non    0.2580
     23 O4          9.7150   62.0730   59.8380 O.2       1 non   -0.2650
     24 C20         7.7370   60.7980   59.6840 C.3       1 non    0.1110
     25 C21         7.4080   61.5310   60.9340 C.3       1 non    0.0100
     26 C22         6.0190   61.5440   61.3940 C.3       1 non    0.0000
     27 C23         5.3330   60.5840   62.2090 C.3       1 non    0.0000
     28 C24         5.3130   59.1540   61.9520 C.3       1 non    0.0000
     29 C25         4.1310   58.3440   62.3760 C.3       1 non    0.0000
     30 C26         4.4700   56.8480   62.3610 C.3       1 non    0.0000
     31 C27         5.0470   56.4680   61.0380 C.3       1 non    0.0000
     32 C28         5.9960   55.2990   61.0570 C.3       1 non   -0.0000
     33 C29         6.6260   55.1060   59.6820 C.3       1 non   -0.0050
     34 C30         7.3240   53.7630   59.6960 C.3       1 non    0.0050
     35 C31        10.2820   58.0850   57.2460 C.3       1 non    0.2170
     36 O5         11.2250   57.0640   57.3660 O.3       1 non   -0.2800
     37 P1         10.4020   55.7120   57.9790 P.3       1 non    0.4220
     38 O6         11.4190   54.3400   57.9710 O.co2     1 non   -0.6170
     39 O7          9.0380   55.4290   57.0520 O.co2     1 non   -0.6170
     40 O8         10.0460   55.9800   59.4220 O.co2     1 non   -0.6170
@<TRIPOS>BOND
     1    1    2 1
     2    1   20 1
     3    1   35 1
     4    2    3 1
     5    3    4 2
     6    3    5 1
     7    5    6 1
     8    6    7 1
     9    7    8 1
    10    8    9 1
    11    9   10 1
    12   10   11 1
    13   11   12 1
    14   12   13 1
    15   13   14 1
    16   14   15 1
    17   15   16 1
    18   16   17 1
    19   17   18 1
    20   18   19 1
    21   20   21 1
    22   21   22 1
    23   22   23 2
    24   22   24 1
    25   24   25 1
    26   25   26 1
    27   26   27 1
    28   27   28 1
    29   28   29 1
    30   29   30 1
    31   30   31 1
    32   31   32 1
    33   32   33 1
    34   33   34 1
    35   35   36 1
    36   36   37 1
    37   37   38 1
    38   37   39 1
    39   37   40 1
@<TRIPOS>SUBSTRUCTURE
     1 non     1 RESIDUE           4 A     non     0 ROOT
