MODEL 1
REMARK VINA RESULT:      -5.2      0.000      0.000
REMARK  31 active torsions:
REMARK  status: ('A' for Active; 'I' for Inactive)
REMARK    1  A    between atoms: C2_2  and  C3_3 
REMARK    2  A    between atoms: C3_3  and  C4_4 
REMARK    3  A    between atoms: C4_4  and  C5_5 
REMARK    4  A    between atoms: C5_5  and  C6_6 
REMARK    5  A    between atoms: C6_6  and  C7_7 
REMARK    6  A    between atoms: C7_7  and  C8_8 
REMARK    7  A    between atoms: C8_8  and  C9_9 
REMARK    8  A    between atoms: C9_9  and  C10_10 
REMARK    9  A    between atoms: C10_10  and  C11_11 
REMARK   10  A    between atoms: C11_11  and  C12_12 
REMARK   11  A    between atoms: C12_12  and  O2_14 
REMARK   12  A    between atoms: O2_14  and  C13_15 
REMARK   13  A    between atoms: C13_15  and  C14_16 
REMARK   14  A    between atoms: C14_16  and  C15_17 
REMARK   15  A    between atoms: C14_16  and  O7_23 
REMARK   16  A    between atoms: C15_17  and  O3_18 
REMARK   17  A    between atoms: O3_18  and  P1_19 
REMARK   18  A    between atoms: O7_23  and  C16_24 
REMARK   19  A    between atoms: C16_24  and  C17_26 
REMARK   20  A    between atoms: C17_26  and  C18_27 
REMARK   21  A    between atoms: C18_27  and  C19_28 
REMARK   22  A    between atoms: C19_28  and  C20_29 
REMARK   23  A    between atoms: C20_29  and  C21_30 
REMARK   24  A    between atoms: C21_30  and  C22_31 
REMARK   25  A    between atoms: C22_31  and  C23_32 
REMARK   26  A    between atoms: C23_32  and  C24_33 
REMARK   27  A    between atoms: C25_34  and  C26_35 
REMARK   28  A    between atoms: C26_35  and  C27_36 
REMARK   29  A    between atoms: C27_36  and  C28_37 
REMARK   30  A    between atoms: C28_37  and  C29_38 
REMARK   31  A    between atoms: C29_38  and  C30_39 
ROOT
ATOM      1  C14 non A   1      -3.934  57.572  50.254  0.00  0.00     0.180 C 
ENDROOT
BRANCH   1   2
ATOM      2  C13 non A   1      -4.952  57.140  51.324  0.00  0.00     0.213 C 
BRANCH   2   3
ATOM      3  O2  non A   1      -5.499  55.929  50.841  0.00  0.00    -0.319 OA
BRANCH   3   4
ATOM      4  C12 non A   1      -6.852  55.844  50.433  0.00  0.00     0.258 C 
ATOM      5  O1  non A   1      -7.064  54.887  49.677  0.00  0.00    -0.265 OA
BRANCH   4   6
ATOM      6  C11 non A   1      -7.841  56.796  50.883  0.00  0.00     0.111 C 
BRANCH   6   7
ATOM      7  C10 non A   1      -8.524  57.719  49.982  0.00  0.00     0.010 C 
BRANCH   7   8
ATOM      8  C9  non A   1      -9.892  57.500  49.518  0.00  0.00     0.000 C 
BRANCH   8   9
ATOM      9  C8  non A   1     -10.405  56.159  49.190  0.00  0.00     0.000 C 
BRANCH   9  10
ATOM     10  C7  non A   1     -11.556  56.231  48.202  0.00  0.00     0.000 C 
BRANCH  10  11
ATOM     11  C6  non A   1     -12.586  55.200  48.472  0.00  0.00     0.000 C 
BRANCH  11  12
ATOM     12  C5  non A   1     -13.838  55.838  49.076  0.00  0.00     0.000 C 
BRANCH  12  13
ATOM     13  C4  non A   1     -13.864  55.738  50.549  0.00  0.00     0.000 C 
BRANCH  13  14
ATOM     14  C3  non A   1     -15.071  55.114  51.117  0.00  0.00    -0.000 C 
BRANCH  14  15
ATOM     15  C2  non A   1     -15.566  55.482  52.449  0.00  0.00    -0.005 C 
ATOM     16  C1  non A   1     -15.681  56.937  52.737  0.00  0.00     0.005 C 
ENDBRANCH  14  15
ENDBRANCH  13  14
ENDBRANCH  12  13
ENDBRANCH  11  12
ENDBRANCH  10  11
ENDBRANCH   9  10
ENDBRANCH   8   9
ENDBRANCH   7   8
ENDBRANCH   6   7
ENDBRANCH   4   6
ENDBRANCH   3   4
ENDBRANCH   2   3
ENDBRANCH   1   2
BRANCH   1  17
ATOM     17  C15 non A   1      -2.860  56.557  50.231  0.00  0.00     0.217 C 
BRANCH  17  18
ATOM     18  O3  non A   1      -1.690  56.978  50.869  0.00  0.00    -0.280 OA
BRANCH  18  19
ATOM     19  P1  non A   1      -0.516  55.756  50.838  0.00  0.00     0.422 P 
ATOM     20  O4  non A   1       0.999  56.523  50.908  0.00  0.00    -0.617 OA
ATOM     21  O5  non A   1      -0.684  54.656  52.092  0.00  0.00    -0.617 OA
ATOM     22  O6  non A   1      -0.638  55.037  49.517  0.00  0.00    -0.617 OA
ENDBRANCH  18  19
ENDBRANCH  17  18
ENDBRANCH   1  17
BRANCH   1  23
ATOM     23  O7  non A   1      -3.552  58.892  50.514  0.00  0.00    -0.312 OA
BRANCH  23  24
ATOM     24  C16 non A   1      -4.215  59.720  51.409  0.00  0.00     0.259 C 
ATOM     25  O8  non A   1      -3.434  60.269  52.260  0.00  0.00    -0.265 OA
BRANCH  24  26
ATOM     26  C17 non A   1      -5.650  59.995  51.447  0.00  0.00     0.111 C 
BRANCH  26  27
ATOM     27  C18 non A   1      -6.198  60.444  52.756  0.00  0.00     0.010 C 
BRANCH  27  28
ATOM     28  C19 non A   1      -5.932  59.465  53.861  0.00  0.00     0.000 C 
BRANCH  28  29
ATOM     29  C20 non A   1      -7.126  58.590  54.128  0.00  0.00     0.000 C 
BRANCH  29  30
ATOM     30  C21 non A   1      -8.431  59.367  54.195  0.00  0.00     0.000 C 
BRANCH  30  31
ATOM     31  C22 non A   1      -9.555  58.522  54.663  0.00  0.00     0.004 C 
BRANCH  31  32
ATOM     32  C23 non A   1      -9.754  57.271  53.852  0.00  0.00     0.027 C 
BRANCH  32  33
ATOM     33  C24 non A   1     -10.965  57.367  53.050  0.00  0.00    -0.031 C 
ATOM     34  C25 non A   1     -12.151  57.010  53.463  0.00  0.00    -0.031 C 
BRANCH  34  35
ATOM     35  C26 non A   1     -12.598  56.461  54.734  0.00  0.00     0.027 C 
BRANCH  35  36
ATOM     36  C27 non A   1     -12.454  54.984  54.795  0.00  0.00     0.004 C 
BRANCH  36  37
ATOM     37  C28 non A   1     -13.608  54.164  55.207  0.00  0.00     0.000 C 
BRANCH  37  38
ATOM     38  C29 non A   1     -13.592  52.828  54.436  0.00  0.00    -0.000 C 
BRANCH  38  39
ATOM     39  C30 non A   1     -12.469  51.938  54.880  0.00  0.00    -0.005 C 
ATOM     40  C31 non A   1     -12.666  51.672  56.377  0.00  0.00     0.005 C 
ENDBRANCH  38  39
ENDBRANCH  37  38
ENDBRANCH  36  37
ENDBRANCH  35  36
ENDBRANCH  34  35
ENDBRANCH  32  33
ENDBRANCH  31  32
ENDBRANCH  30  31
ENDBRANCH  29  30
ENDBRANCH  28  29
ENDBRANCH  27  28
ENDBRANCH  26  27
ENDBRANCH  24  26
ENDBRANCH  23  24
ENDBRANCH   1  23
TORSDOF 31
ENDMDL
MODEL 2
REMARK VINA RESULT:      -4.8      2.805      5.632
REMARK  31 active torsions:
REMARK  status: ('A' for Active; 'I' for Inactive)
REMARK    1  A    between atoms: C2_2  and  C3_3 
REMARK    2  A    between atoms: C3_3  and  C4_4 
REMARK    3  A    between atoms: C4_4  and  C5_5 
REMARK    4  A    between atoms: C5_5  and  C6_6 
REMARK    5  A    between atoms: C6_6  and  C7_7 
REMARK    6  A    between atoms: C7_7  and  C8_8 
REMARK    7  A    between atoms: C8_8  and  C9_9 
REMARK    8  A    between atoms: C9_9  and  C10_10 
REMARK    9  A    between atoms: C10_10  and  C11_11 
REMARK   10  A    between atoms: C11_11  and  C12_12 
REMARK   11  A    between atoms: C12_12  and  O2_14 
REMARK   12  A    between atoms: O2_14  and  C13_15 
REMARK   13  A    between atoms: C13_15  and  C14_16 
REMARK   14  A    between atoms: C14_16  and  C15_17 
REMARK   15  A    between atoms: C14_16  and  O7_23 
REMARK   16  A    between atoms: C15_17  and  O3_18 
REMARK   17  A    between atoms: O3_18  and  P1_19 
REMARK   18  A    between atoms: O7_23  and  C16_24 
REMARK   19  A    between atoms: C16_24  and  C17_26 
REMARK   20  A    between atoms: C17_26  and  C18_27 
REMARK   21  A    between atoms: C18_27  and  C19_28 
REMARK   22  A    between atoms: C19_28  and  C20_29 
REMARK   23  A    between atoms: C20_29  and  C21_30 
REMARK   24  A    between atoms: C21_30  and  C22_31 
REMARK   25  A    between atoms: C22_31  and  C23_32 
REMARK   26  A    between atoms: C23_32  and  C24_33 
REMARK   27  A    between atoms: C25_34  and  C26_35 
REMARK   28  A    between atoms: C26_35  and  C27_36 
REMARK   29  A    between atoms: C27_36  and  C28_37 
REMARK   30  A    between atoms: C28_37  and  C29_38 
REMARK   31  A    between atoms: C29_38  and  C30_39 
ROOT
ATOM      1  C14 non A   1      -4.106  55.553  49.704  0.00  0.00     0.180 C 
ENDROOT
BRANCH   1   2
ATOM      2  C13 non A   1      -5.361  54.777  50.143  0.00  0.00     0.213 C 
BRANCH   2   3
ATOM      3  O2  non A   1      -6.389  55.227  49.282  0.00  0.00    -0.319 OA
BRANCH   3   4
ATOM      4  C12 non A   1      -7.436  56.054  49.758  0.00  0.00     0.258 C 
ATOM      5  O1  non A   1      -7.311  56.342  50.956  0.00  0.00    -0.265 OA
BRANCH   4   6
ATOM      6  C11 non A   1      -8.508  56.492  48.895  0.00  0.00     0.111 C 
BRANCH   6   7
ATOM      7  C10 non A   1      -9.916  56.242  49.187  0.00  0.00     0.010 C 
BRANCH   7   8
ATOM      8  C9  non A   1     -10.716  57.130  50.027  0.00  0.00     0.000 C 
BRANCH   8   9
ATOM      9  C8  non A   1     -10.808  56.959  51.486  0.00  0.00     0.000 C 
BRANCH   9  10
ATOM     10  C7  non A   1     -12.249  56.803  51.938  0.00  0.00     0.000 C 
BRANCH  10  11
ATOM     11  C6  non A   1     -12.467  57.344  53.301  0.00  0.00     0.000 C 
BRANCH  11  12
ATOM     12  C5  non A   1     -11.215  58.067  53.799  0.00  0.00     0.000 C 
BRANCH  12  13
ATOM     13  C4  non A   1     -10.943  57.802  55.225  0.00  0.00     0.000 C 
BRANCH  13  14
ATOM     14  C3  non A   1     -10.364  56.480  55.522  0.00  0.00    -0.000 C 
BRANCH  14  15
ATOM     15  C2  non A   1     -11.212  55.342  55.896  0.00  0.00    -0.005 C 
ATOM     16  C1  non A   1     -11.036  54.803  57.271  0.00  0.00     0.005 C 
ENDBRANCH  14  15
ENDBRANCH  13  14
ENDBRANCH  12  13
ENDBRANCH  11  12
ENDBRANCH  10  11
ENDBRANCH   9  10
ENDBRANCH   8   9
ENDBRANCH   7   8
ENDBRANCH   6   7
ENDBRANCH   4   6
ENDBRANCH   3   4
ENDBRANCH   2   3
ENDBRANCH   1   2
BRANCH   1  17
ATOM     17  C15 non A   1      -3.180  55.581  50.855  0.00  0.00     0.217 C 
BRANCH  17  18
ATOM     18  O3  non A   1      -2.126  54.670  50.737  0.00  0.00    -0.280 OA
BRANCH  18  19
ATOM     19  P1  non A   1      -2.417  53.290  51.677  0.00  0.00     0.422 P 
ATOM     20  O4  non A   1      -0.933  52.848  52.378  0.00  0.00    -0.617 OA
ATOM     21  O5  non A   1      -3.582  53.537  52.857  0.00  0.00    -0.617 OA
ATOM     22  O6  non A   1      -2.865  52.189  50.749  0.00  0.00    -0.617 OA
ENDBRANCH  18  19
ENDBRANCH  17  18
ENDBRANCH   1  17
BRANCH   1  23
ATOM     23  O7  non A   1      -4.509  56.787  49.184  0.00  0.00    -0.312 OA
BRANCH  23  24
ATOM     24  C16 non A   1      -3.668  57.887  49.080  0.00  0.00     0.259 C 
ATOM     25  O8  non A   1      -3.624  58.376  47.899  0.00  0.00    -0.265 OA
BRANCH  24  26
ATOM     26  C17 non A   1      -2.880  58.490  50.153  0.00  0.00     0.111 C 
BRANCH  26  27
ATOM     27  C18 non A   1      -3.651  59.158  51.237  0.00  0.00     0.010 C 
BRANCH  27  28
ATOM     28  C19 non A   1      -4.886  59.843  50.732  0.00  0.00     0.000 C 
BRANCH  28  29
ATOM     29  C20 non A   1      -6.054  59.638  51.656  0.00  0.00     0.000 C 
BRANCH  29  30
ATOM     30  C21 non A   1      -5.648  59.545  53.118  0.00  0.00     0.000 C 
BRANCH  30  31
ATOM     31  C22 non A   1      -5.689  60.866  53.789  0.00  0.00     0.004 C 
BRANCH  31  32
ATOM     32  C23 non A   1      -6.710  60.957  54.891  0.00  0.00     0.027 C 
BRANCH  32  33
ATOM     33  C24 non A   1      -8.043  60.678  54.378  0.00  0.00    -0.031 C 
ATOM     34  C25 non A   1      -9.149  61.016  54.982  0.00  0.00    -0.031 C 
BRANCH  34  35
ATOM     35  C26 non A   1      -9.381  61.716  56.236  0.00  0.00     0.027 C 
BRANCH  35  36
ATOM     36  C27 non A   1     -10.388  62.801  56.101  0.00  0.00     0.004 C 
BRANCH  36  37
ATOM     37  C28 non A   1      -9.943  64.153  55.716  0.00  0.00     0.000 C 
BRANCH  37  38
ATOM     38  C29 non A   1     -10.325  65.155  56.825  0.00  0.00    -0.000 C 
BRANCH  38  39
ATOM     39  C30 non A   1     -10.569  64.473  58.138  0.00  0.00    -0.005 C 
ATOM     40  C31 non A   1      -9.511  64.989  59.120  0.00  0.00     0.005 C 
ENDBRANCH  38  39
ENDBRANCH  37  38
ENDBRANCH  36  37
ENDBRANCH  35  36
ENDBRANCH  34  35
ENDBRANCH  32  33
ENDBRANCH  31  32
ENDBRANCH  30  31
ENDBRANCH  29  30
ENDBRANCH  28  29
ENDBRANCH  27  28
ENDBRANCH  26  27
ENDBRANCH  24  26
ENDBRANCH  23  24
ENDBRANCH   1  23
TORSDOF 31
ENDMDL
MODEL 3
REMARK VINA RESULT:      -4.5      2.828      5.275
REMARK  31 active torsions:
REMARK  status: ('A' for Active; 'I' for Inactive)
REMARK    1  A    between atoms: C2_2  and  C3_3 
REMARK    2  A    between atoms: C3_3  and  C4_4 
REMARK    3  A    between atoms: C4_4  and  C5_5 
REMARK    4  A    between atoms: C5_5  and  C6_6 
REMARK    5  A    between atoms: C6_6  and  C7_7 
REMARK    6  A    between atoms: C7_7  and  C8_8 
REMARK    7  A    between atoms: C8_8  and  C9_9 
REMARK    8  A    between atoms: C9_9  and  C10_10 
REMARK    9  A    between atoms: C10_10  and  C11_11 
REMARK   10  A    between atoms: C11_11  and  C12_12 
REMARK   11  A    between atoms: C12_12  and  O2_14 
REMARK   12  A    between atoms: O2_14  and  C13_15 
REMARK   13  A    between atoms: C13_15  and  C14_16 
REMARK   14  A    between atoms: C14_16  and  C15_17 
REMARK   15  A    between atoms: C14_16  and  O7_23 
REMARK   16  A    between atoms: C15_17  and  O3_18 
REMARK   17  A    between atoms: O3_18  and  P1_19 
REMARK   18  A    between atoms: O7_23  and  C16_24 
REMARK   19  A    between atoms: C16_24  and  C17_26 
REMARK   20  A    between atoms: C17_26  and  C18_27 
REMARK   21  A    between atoms: C18_27  and  C19_28 
REMARK   22  A    between atoms: C19_28  and  C20_29 
REMARK   23  A    between atoms: C20_29  and  C21_30 
REMARK   24  A    between atoms: C21_30  and  C22_31 
REMARK   25  A    between atoms: C22_31  and  C23_32 
REMARK   26  A    between atoms: C23_32  and  C24_33 
REMARK   27  A    between atoms: C25_34  and  C26_35 
REMARK   28  A    between atoms: C26_35  and  C27_36 
REMARK   29  A    between atoms: C27_36  and  C28_37 
REMARK   30  A    between atoms: C28_37  and  C29_38 
REMARK   31  A    between atoms: C29_38  and  C30_39 
ROOT
ATOM      1  C14 non A   1      -4.012  55.672  49.540  0.00  0.00     0.180 C 
ENDROOT
BRANCH   1   2
ATOM      2  C13 non A   1      -5.262  54.790  49.714  0.00  0.00     0.213 C 
BRANCH   2   3
ATOM      3  O2  non A   1      -6.227  55.636  50.307  0.00  0.00    -0.319 OA
BRANCH   3   4
ATOM      4  C12 non A   1      -7.581  55.610  49.893  0.00  0.00     0.258 C 
ATOM      5  O1  non A   1      -7.818  54.700  49.088  0.00  0.00    -0.265 OA
BRANCH   4   6
ATOM      6  C11 non A   1      -8.544  56.565  50.389  0.00  0.00     0.111 C 
BRANCH   6   7
ATOM      7  C10 non A   1      -9.316  57.443  49.515  0.00  0.00     0.010 C 
BRANCH   7   8
ATOM      8  C9  non A   1     -10.300  56.938  48.560  0.00  0.00     0.000 C 
BRANCH   8   9
ATOM      9  C8  non A   1     -11.742  57.188  48.711  0.00  0.00     0.000 C 
BRANCH   9  10
ATOM     10  C7  non A   1     -12.474  55.946  49.187  0.00  0.00     0.000 C 
BRANCH  10  11
ATOM     11  C6  non A   1     -12.938  55.105  48.058  0.00  0.00     0.000 C 
BRANCH  11  12
ATOM     12  C5  non A   1     -13.611  53.833  48.577  0.00  0.00     0.000 C 
BRANCH  12  13
ATOM     13  C4  non A   1     -14.914  54.107  49.213  0.00  0.00     0.000 C 
BRANCH  13  14
ATOM     14  C3  non A   1     -14.971  53.864  50.665  0.00  0.00    -0.000 C 
BRANCH  14  15
ATOM     15  C2  non A   1     -15.326  52.546  51.204  0.00  0.00    -0.005 C 
ATOM     16  C1  non A   1     -16.676  52.418  51.816  0.00  0.00     0.005 C 
ENDBRANCH  14  15
ENDBRANCH  13  14
ENDBRANCH  12  13
ENDBRANCH  11  12
ENDBRANCH  10  11
ENDBRANCH   9  10
ENDBRANCH   8   9
ENDBRANCH   7   8
ENDBRANCH   6   7
ENDBRANCH   4   6
ENDBRANCH   3   4
ENDBRANCH   2   3
ENDBRANCH   1   2
BRANCH   1  17
ATOM     17  C15 non A   1      -3.436  55.889  50.884  0.00  0.00     0.217 C 
BRANCH  17  18
ATOM     18  O3  non A   1      -2.210  55.243  51.069  0.00  0.00    -0.280 OA
BRANCH  18  19
ATOM     19  P1  non A   1      -2.431  53.742  51.822  0.00  0.00     0.422 P 
ATOM     20  O4  non A   1      -1.002  53.402  52.677  0.00  0.00    -0.617 OA
ATOM     21  O5  non A   1      -3.757  53.713  52.848  0.00  0.00    -0.617 OA
ATOM     22  O6  non A   1      -2.609  52.707  50.739  0.00  0.00    -0.617 OA
ENDBRANCH  18  19
ENDBRANCH  17  18
ENDBRANCH   1  17
BRANCH   1  23
ATOM     23  O7  non A   1      -4.372  56.811  48.813  0.00  0.00    -0.312 OA
BRANCH  23  24
ATOM     24  C16 non A   1      -3.594  57.958  48.749  0.00  0.00     0.259 C 
ATOM     25  O8  non A   1      -3.555  58.475  47.579  0.00  0.00    -0.265 OA
BRANCH  24  26
ATOM     26  C17 non A   1      -2.861  58.581  49.849  0.00  0.00     0.111 C 
BRANCH  26  27
ATOM     27  C18 non A   1      -3.582  59.646  50.598  0.00  0.00     0.010 C 
BRANCH  27  28
ATOM     28  C19 non A   1      -4.995  59.829  50.128  0.00  0.00     0.000 C 
BRANCH  28  29
ATOM     29  C20 non A   1      -5.856  60.461  51.186  0.00  0.00     0.000 C 
BRANCH  29  30
ATOM     30  C21 non A   1      -6.650  59.446  51.993  0.00  0.00     0.000 C 
BRANCH  30  31
ATOM     31  C22 non A   1      -6.058  59.220  53.333  0.00  0.00     0.004 C 
BRANCH  31  32
ATOM     32  C23 non A   1      -5.950  60.466  54.169  0.00  0.00     0.027 C 
BRANCH  32  33
ATOM     33  C24 non A   1      -7.271  60.996  54.470  0.00  0.00    -0.031 C 
ATOM     34  C25 non A   1      -7.511  61.895  55.386  0.00  0.00    -0.031 C 
BRANCH  34  35
ATOM     35  C26 non A   1      -6.623  62.590  56.304  0.00  0.00     0.027 C 
BRANCH  35  36
ATOM     36  C27 non A   1      -7.290  62.934  57.587  0.00  0.00     0.004 C 
BRANCH  36  37
ATOM     37  C28 non A   1      -8.129  64.145  57.659  0.00  0.00     0.000 C 
BRANCH  37  38
ATOM     38  C29 non A   1      -9.393  63.845  58.490  0.00  0.00    -0.000 C 
BRANCH  38  39
ATOM     39  C30 non A   1     -10.620  63.750  57.632  0.00  0.00    -0.005 C 
ATOM     40  C31 non A   1     -11.831  63.961  58.549  0.00  0.00     0.005 C 
ENDBRANCH  38  39
ENDBRANCH  37  38
ENDBRANCH  36  37
ENDBRANCH  35  36
ENDBRANCH  34  35
ENDBRANCH  32  33
ENDBRANCH  31  32
ENDBRANCH  30  31
ENDBRANCH  29  30
ENDBRANCH  28  29
ENDBRANCH  27  28
ENDBRANCH  26  27
ENDBRANCH  24  26
ENDBRANCH  23  24
ENDBRANCH   1  23
TORSDOF 31
ENDMDL
MODEL 4
REMARK VINA RESULT:      -4.2      3.438      5.259
REMARK  31 active torsions:
REMARK  status: ('A' for Active; 'I' for Inactive)
REMARK    1  A    between atoms: C2_2  and  C3_3 
REMARK    2  A    between atoms: C3_3  and  C4_4 
REMARK    3  A    between atoms: C4_4  and  C5_5 
REMARK    4  A    between atoms: C5_5  and  C6_6 
REMARK    5  A    between atoms: C6_6  and  C7_7 
REMARK    6  A    between atoms: C7_7  and  C8_8 
REMARK    7  A    between atoms: C8_8  and  C9_9 
REMARK    8  A    between atoms: C9_9  and  C10_10 
REMARK    9  A    between atoms: C10_10  and  C11_11 
REMARK   10  A    between atoms: C11_11  and  C12_12 
REMARK   11  A    between atoms: C12_12  and  O2_14 
REMARK   12  A    between atoms: O2_14  and  C13_15 
REMARK   13  A    between atoms: C13_15  and  C14_16 
REMARK   14  A    between atoms: C14_16  and  C15_17 
REMARK   15  A    between atoms: C14_16  and  O7_23 
REMARK   16  A    between atoms: C15_17  and  O3_18 
REMARK   17  A    between atoms: O3_18  and  P1_19 
REMARK   18  A    between atoms: O7_23  and  C16_24 
REMARK   19  A    between atoms: C16_24  and  C17_26 
REMARK   20  A    between atoms: C17_26  and  C18_27 
REMARK   21  A    between atoms: C18_27  and  C19_28 
REMARK   22  A    between atoms: C19_28  and  C20_29 
REMARK   23  A    between atoms: C20_29  and  C21_30 
REMARK   24  A    between atoms: C21_30  and  C22_31 
REMARK   25  A    between atoms: C22_31  and  C23_32 
REMARK   26  A    between atoms: C23_32  and  C24_33 
REMARK   27  A    between atoms: C25_34  and  C26_35 
REMARK   28  A    between atoms: C26_35  and  C27_36 
REMARK   29  A    between atoms: C27_36  and  C28_37 
REMARK   30  A    between atoms: C28_37  and  C29_38 
REMARK   31  A    between atoms: C29_38  and  C30_39 
ROOT
ATOM      1  C14 non A   1      -4.048  55.614  49.656  0.00  0.00     0.180 C 
ENDROOT
BRANCH   1   2
ATOM      2  C13 non A   1      -5.292  54.718  49.795  0.00  0.00     0.213 C 
BRANCH   2   3
ATOM      3  O2  non A   1      -6.277  55.548  50.378  0.00  0.00    -0.319 OA
BRANCH   3   4
ATOM      4  C12 non A   1      -7.618  55.527  49.924  0.00  0.00     0.258 C 
ATOM      5  O1  non A   1      -7.831  54.623  49.105  0.00  0.00    -0.265 OA
BRANCH   4   6
ATOM      6  C11 non A   1      -8.595  56.478  50.400  0.00  0.00     0.111 C 
BRANCH   6   7
ATOM      7  C10 non A   1      -9.331  57.373  49.513  0.00  0.00     0.010 C 
BRANCH   7   8
ATOM      8  C9  non A   1     -10.359  56.898  48.589  0.00  0.00     0.000 C 
BRANCH   8   9
ATOM      9  C8  non A   1     -11.788  57.186  48.788  0.00  0.00     0.000 C 
BRANCH   9  10
ATOM     10  C7  non A   1     -12.587  55.914  49.008  0.00  0.00     0.000 C 
BRANCH  10  11
ATOM     11  C6  non A   1     -13.974  56.030  48.496  0.00  0.00     0.000 C 
BRANCH  11  12
ATOM     12  C5  non A   1     -14.684  54.678  48.560  0.00  0.00     0.000 C 
BRANCH  12  13
ATOM     13  C4  non A   1     -15.188  54.245  47.242  0.00  0.00     0.000 C 
BRANCH  13  14
ATOM     14  C3  non A   1     -14.292  53.351  46.487  0.00  0.00    -0.000 C 
BRANCH  14  15
ATOM     15  C2  non A   1     -13.268  53.885  45.582  0.00  0.00    -0.005 C 
ATOM     16  C1  non A   1     -13.306  53.405  44.175  0.00  0.00     0.005 C 
ENDBRANCH  14  15
ENDBRANCH  13  14
ENDBRANCH  12  13
ENDBRANCH  11  12
ENDBRANCH  10  11
ENDBRANCH   9  10
ENDBRANCH   8   9
ENDBRANCH   7   8
ENDBRANCH   6   7
ENDBRANCH   4   6
ENDBRANCH   3   4
ENDBRANCH   2   3
ENDBRANCH   1   2
BRANCH   1  17
ATOM     17  C15 non A   1      -3.379  55.648  50.974  0.00  0.00     0.217 C 
BRANCH  17  18
ATOM     18  O3  non A   1      -2.189  54.914  51.007  0.00  0.00    -0.280 OA
BRANCH  18  19
ATOM     19  P1  non A   1      -2.415  53.442  51.815  0.00  0.00     0.422 P 
ATOM     20  O4  non A   1      -0.970  53.109  52.647  0.00  0.00    -0.617 OA
ATOM     21  O5  non A   1      -3.716  53.469  52.872  0.00  0.00    -0.617 OA
ATOM     22  O6  non A   1      -2.634  52.375  50.772  0.00  0.00    -0.617 OA
ENDBRANCH  18  19
ENDBRANCH  17  18
ENDBRANCH   1  17
BRANCH   1  23
ATOM     23  O7  non A   1      -4.445  56.841  49.115  0.00  0.00    -0.312 OA
BRANCH  23  24
ATOM     24  C16 non A   1      -3.629  57.963  49.077  0.00  0.00     0.259 C 
ATOM     25  O8  non A   1      -3.888  58.740  48.094  0.00  0.00    -0.265 OA
BRANCH  24  26
ATOM     26  C17 non A   1      -2.562  58.302  50.017  0.00  0.00     0.111 C 
BRANCH  26  27
ATOM     27  C18 non A   1      -2.984  58.988  51.268  0.00  0.00     0.010 C 
BRANCH  27  28
ATOM     28  C19 non A   1      -4.464  58.911  51.500  0.00  0.00     0.000 C 
BRANCH  28  29
ATOM     29  C20 non A   1      -4.800  58.921  52.965  0.00  0.00     0.000 C 
BRANCH  29  30
ATOM     30  C21 non A   1      -4.363  60.196  53.668  0.00  0.00     0.000 C 
BRANCH  30  31
ATOM     31  C22 non A   1      -5.107  61.381  53.179  0.00  0.00     0.004 C 
BRANCH  31  32
ATOM     32  C23 non A   1      -6.595  61.290  53.382  0.00  0.00     0.027 C 
BRANCH  32  33
ATOM     33  C24 non A   1      -6.944  61.599  54.761  0.00  0.00    -0.031 C 
ATOM     34  C25 non A   1      -8.166  61.648  55.217  0.00  0.00    -0.031 C 
BRANCH  34  35
ATOM     35  C26 non A   1      -9.444  61.425  54.560  0.00  0.00     0.027 C 
BRANCH  35  36
ATOM     36  C27 non A   1     -10.474  62.412  54.975  0.00  0.00     0.004 C 
BRANCH  36  37
ATOM     37  C28 non A   1     -11.880  62.191  54.591  0.00  0.00     0.000 C 
BRANCH  37  38
ATOM     38  C29 non A   1     -12.798  63.066  55.469  0.00  0.00    -0.000 C 
BRANCH  38  39
ATOM     39  C30 non A   1     -13.461  64.154  54.678  0.00  0.00    -0.005 C 
ATOM     40  C31 non A   1     -14.118  65.108  55.682  0.00  0.00     0.005 C 
ENDBRANCH  38  39
ENDBRANCH  37  38
ENDBRANCH  36  37
ENDBRANCH  35  36
ENDBRANCH  34  35
ENDBRANCH  32  33
ENDBRANCH  31  32
ENDBRANCH  30  31
ENDBRANCH  29  30
ENDBRANCH  28  29
ENDBRANCH  27  28
ENDBRANCH  26  27
ENDBRANCH  24  26
ENDBRANCH  23  24
ENDBRANCH   1  23
TORSDOF 31
ENDMDL
MODEL 5
REMARK VINA RESULT:      -3.4     16.289     19.101
REMARK  31 active torsions:
REMARK  status: ('A' for Active; 'I' for Inactive)
REMARK    1  A    between atoms: C2_2  and  C3_3 
REMARK    2  A    between atoms: C3_3  and  C4_4 
REMARK    3  A    between atoms: C4_4  and  C5_5 
REMARK    4  A    between atoms: C5_5  and  C6_6 
REMARK    5  A    between atoms: C6_6  and  C7_7 
REMARK    6  A    between atoms: C7_7  and  C8_8 
REMARK    7  A    between atoms: C8_8  and  C9_9 
REMARK    8  A    between atoms: C9_9  and  C10_10 
REMARK    9  A    between atoms: C10_10  and  C11_11 
REMARK   10  A    between atoms: C11_11  and  C12_12 
REMARK   11  A    between atoms: C12_12  and  O2_14 
REMARK   12  A    between atoms: O2_14  and  C13_15 
REMARK   13  A    between atoms: C13_15  and  C14_16 
REMARK   14  A    between atoms: C14_16  and  C15_17 
REMARK   15  A    between atoms: C14_16  and  O7_23 
REMARK   16  A    between atoms: C15_17  and  O3_18 
REMARK   17  A    between atoms: O3_18  and  P1_19 
REMARK   18  A    between atoms: O7_23  and  C16_24 
REMARK   19  A    between atoms: C16_24  and  C17_26 
REMARK   20  A    between atoms: C17_26  and  C18_27 
REMARK   21  A    between atoms: C18_27  and  C19_28 
REMARK   22  A    between atoms: C19_28  and  C20_29 
REMARK   23  A    between atoms: C20_29  and  C21_30 
REMARK   24  A    between atoms: C21_30  and  C22_31 
REMARK   25  A    between atoms: C22_31  and  C23_32 
REMARK   26  A    between atoms: C23_32  and  C24_33 
REMARK   27  A    between atoms: C25_34  and  C26_35 
REMARK   28  A    between atoms: C26_35  and  C27_36 
REMARK   29  A    between atoms: C27_36  and  C28_37 
REMARK   30  A    between atoms: C28_37  and  C29_38 
REMARK   31  A    between atoms: C29_38  and  C30_39 
ROOT
ATOM      1  C14 non A   1      10.055  58.891  58.359  0.00  0.00     0.180 C 
ENDROOT
BRANCH   1   2
ATOM      2  C13 non A   1       8.602  58.992  57.860  0.00  0.00     0.213 C 
BRANCH   2   3
ATOM      3  O2  non A   1       8.580  58.267  56.646  0.00  0.00    -0.319 OA
BRANCH   3   4
ATOM      4  C12 non A   1       7.359  57.891  56.037  0.00  0.00     0.258 C 
ATOM      5  O1  non A   1       7.021  58.662  55.129  0.00  0.00    -0.265 OA
BRANCH   4   6
ATOM      6  C11 non A   1       6.627  56.721  56.462  0.00  0.00     0.111 C 
BRANCH   6   7
ATOM      7  C10 non A   1       7.270  55.551  57.053  0.00  0.00     0.010 C 
BRANCH   7   8
ATOM      8  C9  non A   1       7.330  55.329  58.496  0.00  0.00     0.000 C 
BRANCH   8   9
ATOM      9  C8  non A   1       7.987  54.150  59.082  0.00  0.00     0.000 C 
BRANCH   9  10
ATOM     10  C7  non A   1       7.115  53.497  60.139  0.00  0.00     0.000 C 
BRANCH  10  11
ATOM     11  C6  non A   1       6.133  54.446  60.717  0.00  0.00     0.000 C 
BRANCH  11  12
ATOM     12  C5  non A   1       6.617  54.959  62.074  0.00  0.00     0.000 C 
BRANCH  12  13
ATOM     13  C4  non A   1       6.796  56.424  62.090  0.00  0.00     0.000 C 
BRANCH  13  14
ATOM     14  C3  non A   1       5.568  57.211  61.878  0.00  0.00    -0.000 C 
BRANCH  14  15
ATOM     15  C2  non A   1       4.395  57.041  62.744  0.00  0.00    -0.005 C 
ATOM     16  C1  non A   1       3.470  58.201  62.848  0.00  0.00     0.005 C 
ENDBRANCH  14  15
ENDBRANCH  13  14
ENDBRANCH  12  13
ENDBRANCH  11  12
ENDBRANCH  10  11
ENDBRANCH   9  10
ENDBRANCH   8   9
ENDBRANCH   7   8
ENDBRANCH   6   7
ENDBRANCH   4   6
ENDBRANCH   3   4
ENDBRANCH   2   3
ENDBRANCH   1   2
BRANCH   1  17
ATOM     17  C15 non A   1      10.670  57.724  57.693  0.00  0.00     0.217 C 
BRANCH  17  18
ATOM     18  O3  non A   1      10.571  56.547  58.441  0.00  0.00    -0.280 OA
BRANCH  18  19
ATOM     19  P1  non A   1      11.603  55.355  57.822  0.00  0.00     0.422 P 
ATOM     20  O4  non A   1      10.673  54.391  56.775  0.00  0.00    -0.617 OA
ATOM     21  O5  non A   1      12.931  55.991  57.021  0.00  0.00    -0.617 OA
ATOM     22  O6  non A   1      12.070  54.507  58.979  0.00  0.00    -0.617 OA
ENDBRANCH  18  19
ENDBRANCH  17  18
ENDBRANCH   1  17
BRANCH   1  23
ATOM     23  O7  non A   1      10.042  58.889  59.757  0.00  0.00    -0.312 OA
BRANCH  23  24
ATOM     24  C16 non A   1       9.545  59.935  60.522  0.00  0.00     0.259 C 
ATOM     25  O8  non A   1      10.182  61.031  60.352  0.00  0.00    -0.265 OA
BRANCH  24  26
ATOM     26  C17 non A   1       8.416  59.880  61.449  0.00  0.00     0.111 C 
BRANCH  26  27
ATOM     27  C18 non A   1       7.091  60.267  60.893  0.00  0.00     0.010 C 
BRANCH  27  28
ATOM     28  C19 non A   1       6.594  61.573  61.437  0.00  0.00     0.000 C 
BRANCH  28  29
ATOM     29  C20 non A   1       5.336  61.400  62.241  0.00  0.00     0.000 C 
BRANCH  29  30
ATOM     30  C21 non A   1       5.218  62.394  63.386  0.00  0.00     0.000 C 
BRANCH  30  31
ATOM     31  C22 non A   1       3.901  62.310  64.059  0.00  0.00     0.004 C 
BRANCH  31  32
ATOM     32  C23 non A   1       3.208  63.637  64.206  0.00  0.00     0.027 C 
BRANCH  32  33
ATOM     33  C24 non A   1       3.497  64.225  65.506  0.00  0.00    -0.031 C 
ATOM     34  C25 non A   1       4.285  65.249  65.690  0.00  0.00    -0.031 C 
BRANCH  34  35
ATOM     35  C26 non A   1       5.046  66.056  64.749  0.00  0.00     0.027 C 
BRANCH  35  36
ATOM     36  C27 non A   1       6.489  65.702  64.737  0.00  0.00     0.004 C 
BRANCH  36  37
ATOM     37  C28 non A   1       7.189  65.578  63.446  0.00  0.00     0.000 C 
BRANCH  37  38
ATOM     38  C29 non A   1       6.161  65.620  62.297  0.00  0.00    -0.000 C 
BRANCH  38  39
ATOM     39  C30 non A   1       6.789  66.023  60.996  0.00  0.00    -0.005 C 
ATOM     40  C31 non A   1       7.843  64.963  60.654  0.00  0.00     0.005 C 
ENDBRANCH  38  39
ENDBRANCH  37  38
ENDBRANCH  36  37
ENDBRANCH  35  36
ENDBRANCH  34  35
ENDBRANCH  32  33
ENDBRANCH  31  32
ENDBRANCH  30  31
ENDBRANCH  29  30
ENDBRANCH  28  29
ENDBRANCH  27  28
ENDBRANCH  26  27
ENDBRANCH  24  26
ENDBRANCH  23  24
ENDBRANCH   1  23
TORSDOF 31
ENDMDL
MODEL 6
REMARK VINA RESULT:      -3.0     17.355     21.345
REMARK  31 active torsions:
REMARK  status: ('A' for Active; 'I' for Inactive)
REMARK    1  A    between atoms: C2_2  and  C3_3 
REMARK    2  A    between atoms: C3_3  and  C4_4 
REMARK    3  A    between atoms: C4_4  and  C5_5 
REMARK    4  A    between atoms: C5_5  and  C6_6 
REMARK    5  A    between atoms: C6_6  and  C7_7 
REMARK    6  A    between atoms: C7_7  and  C8_8 
REMARK    7  A    between atoms: C8_8  and  C9_9 
REMARK    8  A    between atoms: C9_9  and  C10_10 
REMARK    9  A    between atoms: C10_10  and  C11_11 
REMARK   10  A    between atoms: C11_11  and  C12_12 
REMARK   11  A    between atoms: C12_12  and  O2_14 
REMARK   12  A    between atoms: O2_14  and  C13_15 
REMARK   13  A    between atoms: C13_15  and  C14_16 
REMARK   14  A    between atoms: C14_16  and  C15_17 
REMARK   15  A    between atoms: C14_16  and  O7_23 
REMARK   16  A    between atoms: C15_17  and  O3_18 
REMARK   17  A    between atoms: O3_18  and  P1_19 
REMARK   18  A    between atoms: O7_23  and  C16_24 
REMARK   19  A    between atoms: C16_24  and  C17_26 
REMARK   20  A    between atoms: C17_26  and  C18_27 
REMARK   21  A    between atoms: C18_27  and  C19_28 
REMARK   22  A    between atoms: C19_28  and  C20_29 
REMARK   23  A    between atoms: C20_29  and  C21_30 
REMARK   24  A    between atoms: C21_30  and  C22_31 
REMARK   25  A    between atoms: C22_31  and  C23_32 
REMARK   26  A    between atoms: C23_32  and  C24_33 
REMARK   27  A    between atoms: C25_34  and  C26_35 
REMARK   28  A    between atoms: C26_35  and  C27_36 
REMARK   29  A    between atoms: C27_36  and  C28_37 
REMARK   30  A    between atoms: C28_37  and  C29_38 
REMARK   31  A    between atoms: C29_38  and  C30_39 
ROOT
ATOM      1  C14 non A   1       6.451  55.424  62.324  0.00  0.00     0.180 C 
ENDROOT
BRANCH   1   2
ATOM      2  C13 non A   1       5.962  54.929  60.950  0.00  0.00     0.213 C 
BRANCH   2   3
ATOM      3  O2  non A   1       6.460  53.611  60.838  0.00  0.00    -0.319 OA
BRANCH   3   4
ATOM      4  C12 non A   1       7.592  53.318  60.039  0.00  0.00     0.258 C 
ATOM      5  O1  non A   1       8.404  52.580  60.613  0.00  0.00    -0.265 OA
BRANCH   4   6
ATOM      6  C11 non A   1       7.736  53.847  58.704  0.00  0.00     0.111 C 
BRANCH   6   7
ATOM      7  C10 non A   1       9.032  54.081  58.075  0.00  0.00     0.010 C 
BRANCH   7   8
ATOM      8  C9  non A   1       9.277  55.198  57.166  0.00  0.00     0.000 C 
BRANCH   8   9
ATOM      9  C8  non A   1       8.194  56.076  56.692  0.00  0.00     0.000 C 
BRANCH   9  10
ATOM     10  C7  non A   1       7.988  57.257  57.624  0.00  0.00     0.000 C 
BRANCH  10  11
ATOM     11  C6  non A   1       7.099  58.285  57.033  0.00  0.00     0.000 C 
BRANCH  11  12
ATOM     12  C5  non A   1       7.922  59.371  56.339  0.00  0.00     0.000 C 
BRANCH  12  13
ATOM     13  C4  non A   1       7.457  59.635  54.963  0.00  0.00     0.000 C 
BRANCH  13  14
ATOM     14  C3  non A   1       8.520  59.758  53.950  0.00  0.00    -0.000 C 
BRANCH  14  15
ATOM     15  C2  non A   1       9.675  60.639  54.161  0.00  0.00    -0.005 C 
ATOM     16  C1  non A   1      11.006  59.981  54.255  0.00  0.00     0.005 C 
ENDBRANCH  14  15
ENDBRANCH  13  14
ENDBRANCH  12  13
ENDBRANCH  11  12
ENDBRANCH  10  11
ENDBRANCH   9  10
ENDBRANCH   8   9
ENDBRANCH   7   8
ENDBRANCH   6   7
ENDBRANCH   4   6
ENDBRANCH   3   4
ENDBRANCH   2   3
ENDBRANCH   1   2
BRANCH   1  17
ATOM     17  C15 non A   1       7.425  56.508  62.081  0.00  0.00     0.217 C 
BRANCH  17  18
ATOM     18  O3  non A   1       7.355  57.534  63.029  0.00  0.00    -0.280 OA
BRANCH  18  19
ATOM     19  P1  non A   1       7.232  59.044  62.270  0.00  0.00     0.422 P 
ATOM     20  O4  non A   1       6.163  59.980  63.203  0.00  0.00    -0.617 OA
ATOM     21  O5  non A   1       8.711  59.817  62.108  0.00  0.00    -0.617 OA
ATOM     22  O6  non A   1       6.625  58.825  60.907  0.00  0.00    -0.617 OA
ENDBRANCH  18  19
ENDBRANCH  17  18
ENDBRANCH   1  17
BRANCH   1  23
ATOM     23  O7  non A   1       6.900  54.321  63.056  0.00  0.00    -0.312 OA
BRANCH  23  24
ATOM     24  C16 non A   1       7.032  54.319  64.438  0.00  0.00     0.259 C 
ATOM     25  O8  non A   1       6.105  54.970  65.033  0.00  0.00    -0.265 OA
BRANCH  24  26
ATOM     26  C17 non A   1       8.085  53.669  65.215  0.00  0.00     0.111 C 
BRANCH  26  27
ATOM     27  C18 non A   1       9.239  53.136  64.440  0.00  0.00     0.010 C 
BRANCH  27  28
ATOM     28  C19 non A   1      10.555  53.671  64.920  0.00  0.00     0.000 C 
BRANCH  28  29
ATOM     29  C20 non A   1      11.646  52.641  64.816  0.00  0.00     0.000 C 
BRANCH  29  30
ATOM     30  C21 non A   1      12.335  52.638  63.460  0.00  0.00     0.000 C 
BRANCH  30  31
ATOM     31  C22 non A   1      12.567  54.011  62.954  0.00  0.00     0.004 C 
BRANCH  31  32
ATOM     32  C23 non A   1      12.548  54.118  61.453  0.00  0.00     0.027 C 
BRANCH  32  33
ATOM     33  C24 non A   1      12.992  52.871  60.846  0.00  0.00    -0.031 C 
ATOM     34  C25 non A   1      13.543  52.784  59.666  0.00  0.00    -0.031 C 
BRANCH  34  35
ATOM     35  C26 non A   1      13.863  53.803  58.680  0.00  0.00     0.027 C 
BRANCH  35  36
ATOM     36  C27 non A   1      12.719  54.102  57.780  0.00  0.00     0.004 C 
BRANCH  36  37
ATOM     37  C28 non A   1      12.665  53.470  56.449  0.00  0.00     0.000 C 
BRANCH  37  38
ATOM     38  C29 non A   1      13.206  54.454  55.391  0.00  0.00    -0.000 C 
BRANCH  38  39
ATOM     39  C30 non A   1      14.559  54.049  54.887  0.00  0.00    -0.005 C 
ATOM     40  C31 non A   1      15.483  55.262  55.047  0.00  0.00     0.005 C 
ENDBRANCH  38  39
ENDBRANCH  37  38
ENDBRANCH  36  37
ENDBRANCH  35  36
ENDBRANCH  34  35
ENDBRANCH  32  33
ENDBRANCH  31  32
ENDBRANCH  30  31
ENDBRANCH  29  30
ENDBRANCH  28  29
ENDBRANCH  27  28
ENDBRANCH  26  27
ENDBRANCH  24  26
ENDBRANCH  23  24
ENDBRANCH   1  23
TORSDOF 31
ENDMDL
MODEL 7
REMARK VINA RESULT:      -2.8     20.145     23.794
REMARK  31 active torsions:
REMARK  status: ('A' for Active; 'I' for Inactive)
REMARK    1  A    between atoms: C2_2  and  C3_3 
REMARK    2  A    between atoms: C3_3  and  C4_4 
REMARK    3  A    between atoms: C4_4  and  C5_5 
REMARK    4  A    between atoms: C5_5  and  C6_6 
REMARK    5  A    between atoms: C6_6  and  C7_7 
REMARK    6  A    between atoms: C7_7  and  C8_8 
REMARK    7  A    between atoms: C8_8  and  C9_9 
REMARK    8  A    between atoms: C9_9  and  C10_10 
REMARK    9  A    between atoms: C10_10  and  C11_11 
REMARK   10  A    between atoms: C11_11  and  C12_12 
REMARK   11  A    between atoms: C12_12  and  O2_14 
REMARK   12  A    between atoms: O2_14  and  C13_15 
REMARK   13  A    between atoms: C13_15  and  C14_16 
REMARK   14  A    between atoms: C14_16  and  C15_17 
REMARK   15  A    between atoms: C14_16  and  O7_23 
REMARK   16  A    between atoms: C15_17  and  O3_18 
REMARK   17  A    between atoms: O3_18  and  P1_19 
REMARK   18  A    between atoms: O7_23  and  C16_24 
REMARK   19  A    between atoms: C16_24  and  C17_26 
REMARK   20  A    between atoms: C17_26  and  C18_27 
REMARK   21  A    between atoms: C18_27  and  C19_28 
REMARK   22  A    between atoms: C19_28  and  C20_29 
REMARK   23  A    between atoms: C20_29  and  C21_30 
REMARK   24  A    between atoms: C21_30  and  C22_31 
REMARK   25  A    between atoms: C22_31  and  C23_32 
REMARK   26  A    between atoms: C23_32  and  C24_33 
REMARK   27  A    between atoms: C25_34  and  C26_35 
REMARK   28  A    between atoms: C26_35  and  C27_36 
REMARK   29  A    between atoms: C27_36  and  C28_37 
REMARK   30  A    between atoms: C28_37  and  C29_38 
REMARK   31  A    between atoms: C29_38  and  C30_39 
ROOT
ATOM      1  C14 non A   1      -4.608  37.078  54.557  0.00  0.00     0.180 C 
ENDROOT
BRANCH   1   2
ATOM      2  C13 non A   1      -4.598  38.618  54.550  0.00  0.00     0.213 C 
BRANCH   2   3
ATOM      3  O2  non A   1      -4.185  38.975  53.246  0.00  0.00    -0.319 OA
BRANCH   3   4
ATOM      4  C12 non A   1      -2.888  38.661  52.773  0.00  0.00     0.258 C 
ATOM      5  O1  non A   1      -2.900  38.172  51.636  0.00  0.00    -0.265 OA
BRANCH   4   6
ATOM      6  C11 non A   1      -1.710  38.907  53.570  0.00  0.00     0.111 C 
BRANCH   6   7
ATOM      7  C10 non A   1      -0.463  39.419  53.010  0.00  0.00     0.010 C 
BRANCH   7   8
ATOM      8  C9  non A   1       0.829  39.243  53.671  0.00  0.00     0.000 C 
BRANCH   8   9
ATOM      9  C8  non A   1       2.039  39.958  53.233  0.00  0.00     0.000 C 
BRANCH   9  10
ATOM     10  C7  non A   1       3.230  39.023  53.133  0.00  0.00     0.000 C 
BRANCH  10  11
ATOM     11  C6  non A   1       2.817  37.602  53.031  0.00  0.00     0.000 C 
BRANCH  11  12
ATOM     12  C5  non A   1       4.022  36.679  53.215  0.00  0.00     0.000 C 
BRANCH  12  13
ATOM     13  C4  non A   1       5.286  37.313  52.790  0.00  0.00     0.000 C 
BRANCH  13  14
ATOM     14  C3  non A   1       6.372  37.283  53.785  0.00  0.00    -0.000 C 
BRANCH  14  15
ATOM     15  C2  non A   1       7.084  38.507  54.173  0.00  0.00    -0.005 C 
ATOM     16  C1  non A   1       6.672  39.138  55.455  0.00  0.00     0.005 C 
ENDBRANCH  14  15
ENDBRANCH  13  14
ENDBRANCH  12  13
ENDBRANCH  11  12
ENDBRANCH  10  11
ENDBRANCH   9  10
ENDBRANCH   8   9
ENDBRANCH   7   8
ENDBRANCH   6   7
ENDBRANCH   4   6
ENDBRANCH   3   4
ENDBRANCH   2   3
ENDBRANCH   1   2
BRANCH   1  17
ATOM     17  C15 non A   1      -5.794  36.641  53.792  0.00  0.00     0.217 C 
BRANCH  17  18
ATOM     18  O3  non A   1      -5.476  35.841  52.690  0.00  0.00    -0.280 OA
BRANCH  18  19
ATOM     19  P1  non A   1      -6.870  35.452  51.809  0.00  0.00     0.422 P 
ATOM     20  O4  non A   1      -7.907  36.796  51.905  0.00  0.00    -0.617 OA
ATOM     21  O5  non A   1      -6.546  35.064  50.211  0.00  0.00    -0.617 OA
ATOM     22  O6  non A   1      -7.530  34.278  52.490  0.00  0.00    -0.617 OA
ENDBRANCH  18  19
ENDBRANCH  17  18
ENDBRANCH   1  17
BRANCH   1  23
ATOM     23  O7  non A   1      -4.512  36.641  55.881  0.00  0.00    -0.312 OA
BRANCH  23  24
ATOM     24  C16 non A   1      -3.337  36.681  56.620  0.00  0.00     0.259 C 
ATOM     25  O8  non A   1      -3.536  36.827  57.875  0.00  0.00    -0.265 OA
BRANCH  24  26
ATOM     26  C17 non A   1      -1.975  36.573  56.102  0.00  0.00     0.111 C 
BRANCH  26  27
ATOM     27  C18 non A   1      -0.881  36.673  57.106  0.00  0.00     0.010 C 
BRANCH  27  28
ATOM     28  C19 non A   1      -0.441  38.086  57.344  0.00  0.00     0.000 C 
BRANCH  28  29
ATOM     29  C20 non A   1       0.318  38.223  58.636  0.00  0.00     0.000 C 
BRANCH  29  30
ATOM     30  C21 non A   1       1.784  38.569  58.431  0.00  0.00     0.000 C 
BRANCH  30  31
ATOM     31  C22 non A   1       2.147  38.618  56.995  0.00  0.00     0.004 C 
BRANCH  31  32
ATOM     32  C23 non A   1       3.365  37.807  56.647  0.00  0.00     0.027 C 
BRANCH  32  33
ATOM     33  C24 non A   1       3.165  36.408  56.996  0.00  0.00    -0.031 C 
ATOM     34  C25 non A   1       4.097  35.628  57.471  0.00  0.00    -0.031 C 
BRANCH  34  35
ATOM     35  C26 non A   1       5.495  35.882  57.780  0.00  0.00     0.027 C 
BRANCH  35  36
ATOM     36  C27 non A   1       6.396  35.545  56.647  0.00  0.00     0.004 C 
BRANCH  36  37
ATOM     37  C28 non A   1       7.850  35.742  56.800  0.00  0.00     0.000 C 
BRANCH  37  38
ATOM     38  C29 non A   1       8.600  34.573  56.131  0.00  0.00    -0.000 C 
BRANCH  38  39
ATOM     39  C30 non A   1       9.319  33.720  57.133  0.00  0.00    -0.005 C 
ATOM     40  C31 non A   1       9.449  34.545  58.419  0.00  0.00     0.005 C 
ENDBRANCH  38  39
ENDBRANCH  37  38
ENDBRANCH  36  37
ENDBRANCH  35  36
ENDBRANCH  34  35
ENDBRANCH  32  33
ENDBRANCH  31  32
ENDBRANCH  30  31
ENDBRANCH  29  30
ENDBRANCH  28  29
ENDBRANCH  27  28
ENDBRANCH  26  27
ENDBRANCH  24  26
ENDBRANCH  23  24
ENDBRANCH   1  23
TORSDOF 31
ENDMDL
MODEL 8
REMARK VINA RESULT:      -2.8     16.882     20.420
REMARK  31 active torsions:
REMARK  status: ('A' for Active; 'I' for Inactive)
REMARK    1  A    between atoms: C2_2  and  C3_3 
REMARK    2  A    between atoms: C3_3  and  C4_4 
REMARK    3  A    between atoms: C4_4  and  C5_5 
REMARK    4  A    between atoms: C5_5  and  C6_6 
REMARK    5  A    between atoms: C6_6  and  C7_7 
REMARK    6  A    between atoms: C7_7  and  C8_8 
REMARK    7  A    between atoms: C8_8  and  C9_9 
REMARK    8  A    between atoms: C9_9  and  C10_10 
REMARK    9  A    between atoms: C10_10  and  C11_11 
REMARK   10  A    between atoms: C11_11  and  C12_12 
REMARK   11  A    between atoms: C12_12  and  O2_14 
REMARK   12  A    between atoms: O2_14  and  C13_15 
REMARK   13  A    between atoms: C13_15  and  C14_16 
REMARK   14  A    between atoms: C14_16  and  C15_17 
REMARK   15  A    between atoms: C14_16  and  O7_23 
REMARK   16  A    between atoms: C15_17  and  O3_18 
REMARK   17  A    between atoms: O3_18  and  P1_19 
REMARK   18  A    between atoms: O7_23  and  C16_24 
REMARK   19  A    between atoms: C16_24  and  C17_26 
REMARK   20  A    between atoms: C17_26  and  C18_27 
REMARK   21  A    between atoms: C18_27  and  C19_28 
REMARK   22  A    between atoms: C19_28  and  C20_29 
REMARK   23  A    between atoms: C20_29  and  C21_30 
REMARK   24  A    between atoms: C21_30  and  C22_31 
REMARK   25  A    between atoms: C22_31  and  C23_32 
REMARK   26  A    between atoms: C23_32  and  C24_33 
REMARK   27  A    between atoms: C25_34  and  C26_35 
REMARK   28  A    between atoms: C26_35  and  C27_36 
REMARK   29  A    between atoms: C27_36  and  C28_37 
REMARK   30  A    between atoms: C28_37  and  C29_38 
REMARK   31  A    between atoms: C29_38  and  C30_39 
ROOT
ATOM      1  C14 non A   1      -5.449  37.837  53.697  0.00  0.00     0.180 C 
ENDROOT
BRANCH   1   2
ATOM      2  C13 non A   1      -5.492  39.225  54.362  0.00  0.00     0.213 C 
BRANCH   2   3
ATOM      3  O2  non A   1      -5.267  40.142  53.310  0.00  0.00    -0.319 OA
BRANCH   3   4
ATOM      4  C12 non A   1      -3.955  40.495  52.911  0.00  0.00     0.258 C 
ATOM      5  O1  non A   1      -3.169  40.569  53.864  0.00  0.00    -0.265 OA
BRANCH   4   6
ATOM      6  C11 non A   1      -3.621  40.728  51.526  0.00  0.00     0.111 C 
BRANCH   6   7
ATOM      7  C10 non A   1      -2.374  40.269  50.920  0.00  0.00     0.010 C 
BRANCH   7   8
ATOM      8  C9  non A   1      -1.931  38.878  50.988  0.00  0.00     0.000 C 
BRANCH   8   9
ATOM      9  C8  non A   1      -0.756  38.466  51.774  0.00  0.00     0.000 C 
BRANCH   9  10
ATOM     10  C7  non A   1      -0.051  37.281  51.140  0.00  0.00     0.000 C 
BRANCH  10  11
ATOM     11  C6  non A   1       0.937  36.663  52.057  0.00  0.00     0.000 C 
BRANCH  11  12
ATOM     12  C5  non A   1       2.325  36.647  51.418  0.00  0.00     0.000 C 
BRANCH  12  13
ATOM     13  C4  non A   1       2.807  38.003  51.086  0.00  0.00     0.000 C 
BRANCH  13  14
ATOM     14  C3  non A   1       3.720  38.607  52.073  0.00  0.00    -0.000 C 
BRANCH  14  15
ATOM     15  C2  non A   1       3.768  38.129  53.460  0.00  0.00    -0.005 C 
ATOM     16  C1  non A   1       2.901  38.837  54.439  0.00  0.00     0.005 C 
ENDBRANCH  14  15
ENDBRANCH  13  14
ENDBRANCH  12  13
ENDBRANCH  11  12
ENDBRANCH  10  11
ENDBRANCH   9  10
ENDBRANCH   8   9
ENDBRANCH   7   8
ENDBRANCH   6   7
ENDBRANCH   4   6
ENDBRANCH   3   4
ENDBRANCH   2   3
ENDBRANCH   1   2
BRANCH   1  17
ATOM     17  C15 non A   1      -6.761  37.617  53.052  0.00  0.00     0.217 C 
BRANCH  17  18
ATOM     18  O3  non A   1      -7.784  38.391  53.606  0.00  0.00    -0.280 OA
BRANCH  18  19
ATOM     19  P1  non A   1      -8.786  39.019  52.392  0.00  0.00     0.422 P 
ATOM     20  O4  non A   1     -10.369  38.512  52.745  0.00  0.00    -0.617 OA
ATOM     21  O5  non A   1      -8.708  40.690  52.280  0.00  0.00    -0.617 OA
ATOM     22  O6  non A   1      -8.358  38.405  51.082  0.00  0.00    -0.617 OA
ENDBRANCH  18  19
ENDBRANCH  17  18
ENDBRANCH   1  17
BRANCH   1  23
ATOM     23  O7  non A   1      -5.049  36.900  54.655  0.00  0.00    -0.312 OA
BRANCH  23  24
ATOM     24  C16 non A   1      -3.792  36.895  55.245  0.00  0.00     0.259 C 
ATOM     25  O8  non A   1      -3.836  36.818  56.521  0.00  0.00    -0.265 OA
BRANCH  24  26
ATOM     26  C17 non A   1      -2.504  36.965  54.559  0.00  0.00     0.111 C 
BRANCH  26  27
ATOM     27  C18 non A   1      -1.355  36.323  55.253  0.00  0.00     0.010 C 
BRANCH  27  28
ATOM     28  C19 non A   1      -0.239  37.284  55.535  0.00  0.00     0.000 C 
BRANCH  28  29
ATOM     29  C20 non A   1       0.705  36.752  56.578  0.00  0.00     0.000 C 
BRANCH  29  30
ATOM     30  C21 non A   1       0.969  37.740  57.703  0.00  0.00     0.000 C 
BRANCH  30  31
ATOM     31  C22 non A   1      -0.247  38.507  58.063  0.00  0.00     0.004 C 
BRANCH  31  32
ATOM     32  C23 non A   1       0.037  39.779  58.814  0.00  0.00     0.027 C 
BRANCH  32  33
ATOM     33  C24 non A   1      -0.515  40.926  58.108  0.00  0.00    -0.031 C 
ATOM     34  C25 non A   1      -1.638  41.513  58.423  0.00  0.00    -0.031 C 
BRANCH  34  35
ATOM     35  C26 non A   1      -2.599  41.240  59.480  0.00  0.00     0.027 C 
BRANCH  35  36
ATOM     36  C27 non A   1      -4.000  41.482  59.048  0.00  0.00     0.004 C 
BRANCH  36  37
ATOM     37  C28 non A   1      -4.738  42.630  59.606  0.00  0.00     0.000 C 
BRANCH  37  38
ATOM     38  C29 non A   1      -5.233  43.532  58.457  0.00  0.00    -0.000 C 
BRANCH  38  39
ATOM     39  C30 non A   1      -6.605  44.075  58.721  0.00  0.00    -0.005 C 
ATOM     40  C31 non A   1      -6.540  45.592  58.506  0.00  0.00     0.005 C 
ENDBRANCH  38  39
ENDBRANCH  37  38
ENDBRANCH  36  37
ENDBRANCH  35  36
ENDBRANCH  34  35
ENDBRANCH  32  33
ENDBRANCH  31  32
ENDBRANCH  30  31
ENDBRANCH  29  30
ENDBRANCH  28  29
ENDBRANCH  27  28
ENDBRANCH  26  27
ENDBRANCH  24  26
ENDBRANCH  23  24
ENDBRANCH   1  23
TORSDOF 31
ENDMDL
MODEL 9
REMARK VINA RESULT:      -2.7     19.841     23.375
REMARK  31 active torsions:
REMARK  status: ('A' for Active; 'I' for Inactive)
REMARK    1  A    between atoms: C2_2  and  C3_3 
REMARK    2  A    between atoms: C3_3  and  C4_4 
REMARK    3  A    between atoms: C4_4  and  C5_5 
REMARK    4  A    between atoms: C5_5  and  C6_6 
REMARK    5  A    between atoms: C6_6  and  C7_7 
REMARK    6  A    between atoms: C7_7  and  C8_8 
REMARK    7  A    between atoms: C8_8  and  C9_9 
REMARK    8  A    between atoms: C9_9  and  C10_10 
REMARK    9  A    between atoms: C10_10  and  C11_11 
REMARK   10  A    between atoms: C11_11  and  C12_12 
REMARK   11  A    between atoms: C12_12  and  O2_14 
REMARK   12  A    between atoms: O2_14  and  C13_15 
REMARK   13  A    between atoms: C13_15  and  C14_16 
REMARK   14  A    between atoms: C14_16  and  C15_17 
REMARK   15  A    between atoms: C14_16  and  O7_23 
REMARK   16  A    between atoms: C15_17  and  O3_18 
REMARK   17  A    between atoms: O3_18  and  P1_19 
REMARK   18  A    between atoms: O7_23  and  C16_24 
REMARK   19  A    between atoms: C16_24  and  C17_26 
REMARK   20  A    between atoms: C17_26  and  C18_27 
REMARK   21  A    between atoms: C18_27  and  C19_28 
REMARK   22  A    between atoms: C19_28  and  C20_29 
REMARK   23  A    between atoms: C20_29  and  C21_30 
REMARK   24  A    between atoms: C21_30  and  C22_31 
REMARK   25  A    between atoms: C22_31  and  C23_32 
REMARK   26  A    between atoms: C23_32  and  C24_33 
REMARK   27  A    between atoms: C25_34  and  C26_35 
REMARK   28  A    between atoms: C26_35  and  C27_36 
REMARK   29  A    between atoms: C27_36  and  C28_37 
REMARK   30  A    between atoms: C28_37  and  C29_38 
REMARK   31  A    between atoms: C29_38  and  C30_39 
ROOT
ATOM      1  C14 non A   1      17.370  54.638  53.746  0.00  0.00     0.180 C 
ENDROOT
BRANCH   1   2
ATOM      2  C13 non A   1      16.532  54.092  54.917  0.00  0.00     0.213 C 
BRANCH   2   3
ATOM      3  O2  non A   1      15.190  54.365  54.565  0.00  0.00    -0.319 OA
BRANCH   3   4
ATOM      4  C12 non A   1      14.242  53.324  54.420  0.00  0.00     0.258 C 
ATOM      5  O1  non A   1      14.753  52.261  54.041  0.00  0.00    -0.265 OA
BRANCH   4   6
ATOM      6  C11 non A   1      12.841  53.529  54.702  0.00  0.00     0.111 C 
BRANCH   6   7
ATOM      7  C10 non A   1      12.300  53.581  56.057  0.00  0.00     0.010 C 
BRANCH   7   8
ATOM      8  C9  non A   1      13.041  54.153  57.179  0.00  0.00     0.000 C 
BRANCH   8   9
ATOM      9  C8  non A   1      13.155  55.607  57.386  0.00  0.00     0.000 C 
BRANCH   9  10
ATOM     10  C7  non A   1      11.942  56.161  58.111  0.00  0.00     0.000 C 
BRANCH  10  11
ATOM     11  C6  non A   1      10.968  56.776  57.178  0.00  0.00     0.000 C 
BRANCH  11  12
ATOM     12  C5  non A   1      10.029  57.722  57.929  0.00  0.00     0.000 C 
BRANCH  12  13
ATOM     13  C4  non A   1       8.989  58.294  57.052  0.00  0.00     0.000 C 
BRANCH  13  14
ATOM     14  C3  non A   1       9.111  59.738  56.788  0.00  0.00    -0.000 C 
BRANCH  14  15
ATOM     15  C2  non A   1       9.672  60.652  57.791  0.00  0.00    -0.005 C 
ATOM     16  C1  non A   1       9.948  62.043  57.344  0.00  0.00     0.005 C 
ENDBRANCH  14  15
ENDBRANCH  13  14
ENDBRANCH  12  13
ENDBRANCH  11  12
ENDBRANCH  10  11
ENDBRANCH   9  10
ENDBRANCH   8   9
ENDBRANCH   7   8
ENDBRANCH   6   7
ENDBRANCH   4   6
ENDBRANCH   3   4
ENDBRANCH   2   3
ENDBRANCH   1   2
BRANCH   1  17
ATOM     17  C15 non A   1      18.547  53.757  53.597  0.00  0.00     0.217 C 
BRANCH  17  18
ATOM     18  O3  non A   1      19.272  53.998  52.426  0.00  0.00    -0.280 OA
BRANCH  18  19
ATOM     19  P1  non A   1      20.465  52.816  52.205  0.00  0.00     0.422 P 
ATOM     20  O4  non A   1      19.663  51.323  52.071  0.00  0.00    -0.617 OA
ATOM     21  O5  non A   1      21.423  53.099  50.859  0.00  0.00    -0.617 OA
ATOM     22  O6  non A   1      21.327  52.797  53.443  0.00  0.00    -0.617 OA
ENDBRANCH  18  19
ENDBRANCH  17  18
ENDBRANCH   1  17
BRANCH   1  23
ATOM     23  O7  non A   1      17.619  55.995  53.976  0.00  0.00    -0.312 OA
BRANCH  23  24
ATOM     24  C16 non A   1      17.801  56.538  55.240  0.00  0.00     0.259 C 
ATOM     25  O8  non A   1      18.897  56.175  55.791  0.00  0.00    -0.265 OA
BRANCH  24  26
ATOM     26  C17 non A   1      16.890  57.438  55.944  0.00  0.00     0.111 C 
BRANCH  26  27
ATOM     27  C18 non A   1      15.554  57.640  55.321  0.00  0.00     0.010 C 
BRANCH  27  28
ATOM     28  C19 non A   1      15.089  59.064  55.395  0.00  0.00     0.000 C 
BRANCH  28  29
ATOM     29  C20 non A   1      14.033  59.251  56.448  0.00  0.00     0.000 C 
BRANCH  29  30
ATOM     30  C21 non A   1      12.676  59.626  55.872  0.00  0.00     0.000 C 
BRANCH  30  31
ATOM     31  C22 non A   1      12.804  60.435  54.637  0.00  0.00     0.004 C 
BRANCH  31  32
ATOM     32  C23 non A   1      11.637  60.298  53.697  0.00  0.00     0.027 C 
BRANCH  32  33
ATOM     33  C24 non A   1      10.714  61.411  53.861  0.00  0.00    -0.031 C 
ATOM     34  C25 non A   1       9.826  61.767  52.973  0.00  0.00    -0.031 C 
BRANCH  34  35
ATOM     35  C26 non A   1       9.502  61.215  51.666  0.00  0.00     0.027 C 
BRANCH  35  36
ATOM     36  C27 non A   1      10.661  61.242  50.737  0.00  0.00     0.004 C 
BRANCH  36  37
ATOM     37  C28 non A   1      10.670  62.210  49.625  0.00  0.00     0.000 C 
BRANCH  37  38
ATOM     38  C29 non A   1      12.026  62.945  49.593  0.00  0.00    -0.000 C 
BRANCH  38  39
ATOM     39  C30 non A   1      12.332  63.615  50.900  0.00  0.00    -0.005 C 
ATOM     40  C31 non A   1      13.680  63.069  51.384  0.00  0.00     0.005 C 
ENDBRANCH  38  39
ENDBRANCH  37  38
ENDBRANCH  36  37
ENDBRANCH  35  36
ENDBRANCH  34  35
ENDBRANCH  32  33
ENDBRANCH  31  32
ENDBRANCH  30  31
ENDBRANCH  29  30
ENDBRANCH  28  29
ENDBRANCH  27  28
ENDBRANCH  26  27
ENDBRANCH  24  26
ENDBRANCH  23  24
ENDBRANCH   1  23
TORSDOF 31
ENDMDL
