@<TRIPOS>MOLECULE

40 39 1 0 0
SMALL
NO_CHARGES


@<TRIPOS>ATOM
      1 C14        -3.9340   57.5720   50.2540 C.3       1 non    0.1800
      2 C13        -4.9520   57.1400   51.3240 C.3       1 non    0.2130
      3 O2         -5.4990   55.9290   50.8410 O.3       1 non   -0.3190
      4 C12        -6.8520   55.8440   50.4330 C.2       1 non    0.2580
      5 O1         -7.0640   54.8870   49.6770 O.2       1 non   -0.2650
      6 C11        -7.8410   56.7960   50.8830 C.3       1 non    0.1110
      7 C10        -8.5240   57.7190   49.9820 C.3       1 non    0.0100
      8 C9         -9.8920   57.5000   49.5180 C.3       1 non    0.0000
      9 C8        -10.4050   56.1590   49.1900 C.3       1 non    0.0000
     10 C7        -11.5560   56.2310   48.2020 C.3       1 non    0.0000
     11 C6        -12.5860   55.2000   48.4720 C.3       1 non    0.0000
     12 C5        -13.8380   55.8380   49.0760 C.3       1 non    0.0000
     13 C4        -13.8640   55.7380   50.5490 C.3       1 non    0.0000
     14 C3        -15.0710   55.1140   51.1170 C.3       1 non   -0.0000
     15 C2        -15.5660   55.4820   52.4490 C.3       1 non   -0.0050
     16 C1        -15.6810   56.9370   52.7370 C.3       1 non    0.0050
     17 C15        -2.8600   56.5570   50.2310 C.3       1 non    0.2170
     18 O3         -1.6900   56.9780   50.8690 O.3       1 non   -0.2800
     19 P1         -0.5160   55.7560   50.8380 P.3       1 non    0.4220
     20 O4          0.9990   56.5230   50.9080 O.co2     1 non   -0.6170
     21 O5         -0.6840   54.6560   52.0920 O.co2     1 non   -0.6170
     22 O6         -0.6380   55.0370   49.5170 O.co2     1 non   -0.6170
     23 O7         -3.5520   58.8920   50.5140 O.3       1 non   -0.3120
     24 C16        -4.2150   59.7200   51.4090 C.2       1 non    0.2590
     25 O8         -3.4340   60.2690   52.2600 O.2       1 non   -0.2650
     26 C17        -5.6500   59.9950   51.4470 C.3       1 non    0.1110
     27 C18        -6.1980   60.4440   52.7560 C.3       1 non    0.0100
     28 C19        -5.9320   59.4650   53.8610 C.3       1 non    0.0000
     29 C20        -7.1260   58.5900   54.1280 C.3       1 non    0.0000
     30 C21        -8.4310   59.3670   54.1950 C.3       1 non    0.0000
     31 C22        -9.5550   58.5220   54.6630 C.3       1 non    0.0040
     32 C23        -9.7540   57.2710   53.8520 C.3       1 non    0.0270
     33 C24       -10.9650   57.3670   53.0500 C.2       1 non   -0.0310
     34 C25       -12.1510   57.0100   53.4630 C.2       1 non   -0.0310
     35 C26       -12.5980   56.4610   54.7340 C.3       1 non    0.0270
     36 C27       -12.4540   54.9840   54.7950 C.3       1 non    0.0040
     37 C28       -13.6080   54.1640   55.2070 C.3       1 non    0.0000
     38 C29       -13.5920   52.8280   54.4360 C.3       1 non   -0.0000
     39 C30       -12.4690   51.9380   54.8800 C.3       1 non   -0.0050
     40 C31       -12.6660   51.6720   56.3770 C.3       1 non    0.0050
@<TRIPOS>BOND
     1    1    2 1
     2    1   17 1
     3    1   23 1
     4    2    3 1
     5    3    4 1
     6    4    5 2
     7    4    6 1
     8    6    7 1
     9    7    8 1
    10    8    9 1
    11    9   10 1
    12   10   11 1
    13   11   12 1
    14   12   13 1
    15   13   14 1
    16   14   15 1
    17   15   16 1
    18   17   18 1
    19   18   19 1
    20   19   20 1
    21   19   21 1
    22   19   22 1
    23   23   24 1
    24   24   25 2
    25   24   26 1
    26   26   27 1
    27   27   28 1
    28   28   29 1
    29   29   30 1
    30   30   31 1
    31   31   32 1
    32   32   33 1
    33   33   34 2
    34   34   35 1
    35   35   36 1
    36   36   37 1
    37   37   38 1
    38   38   39 1
    39   39   40 1
@<TRIPOS>SUBSTRUCTURE
     1 non     1 RESIDUE           4 A     non     0 ROOT
