MODEL 1
REMARK VINA RESULT:      -3.3      0.000      0.000
REMARK WARNING: 32 MAX_TORS EXCEEDED!!!
REMARK  33 active torsions:
REMARK  status: ('A' for Active; 'I' for Inactive)
REMARK    1  A    between atoms: C2_2  and  C3_3 
REMARK    2  A    between atoms: C3_3  and  C4_4 
REMARK    3  A    between atoms: C4_4  and  C5_5 
REMARK    4  A    between atoms: C5_5  and  C6_6 
REMARK    5  A    between atoms: C6_6  and  C7_7 
REMARK    6  A    between atoms: C7_7  and  C8_8 
REMARK    7  A    between atoms: C8_8  and  C9_9 
REMARK    8  A    between atoms: C9_9  and  C10_10 
REMARK    9  A    between atoms: C10_10  and  C11_11 
REMARK   10  A    between atoms: C11_11  and  C12_12 
REMARK   11  A    between atoms: C12_12  and  C13_13 
REMARK   12  A    between atoms: C13_13  and  C14_14 
REMARK   13  A    between atoms: C14_14  and  C15_15 
REMARK   14  A    between atoms: C15_15  and  C16_16 
REMARK   15  A    between atoms: C16_16  and  O2_18 
REMARK   16  A    between atoms: O2_18  and  C17_19 
REMARK   17  A    between atoms: C17_19  and  C18_20 
REMARK   18  A    between atoms: C17_19  and  C33_37 
REMARK   19  A    between atoms: C18_20  and  O3_21 
REMARK   20  A    between atoms: O3_21  and  C19_22 
REMARK   21  A    between atoms: C19_22  and  C20_24 
REMARK   22  A    between atoms: C20_24  and  C21_25 
REMARK   23  A    between atoms: C21_25  and  C22_26 
REMARK   24  A    between atoms: C22_26  and  C23_27 
REMARK   25  A    between atoms: C23_27  and  C24_28 
REMARK   26  A    between atoms: C24_28  and  C25_29 
REMARK   27  A    between atoms: C25_29  and  C26_30 
REMARK   28  A    between atoms: C26_30  and  C27_31 
REMARK   29  A    between atoms: C28_32  and  C29_33 
REMARK   30  A    between atoms: C29_33  and  C30_34 
REMARK   31  A    between atoms: C30_34  and  C31_35 
REMARK   32  A    between atoms: C33_37  and  O5_38 
REMARK   33  A    between atoms: O5_38  and  P1_39 
ROOT
ATOM      1  C17 non A   1      -9.044  64.614  57.732  0.00  0.00     0.180 C 
ENDROOT
BRANCH   1   2
ATOM      2  O2  non A   1      -8.350  64.994  56.567  0.00  0.00    -0.312 OA
BRANCH   2   3
ATOM      3  C16 non A   1      -8.869  64.898  55.278  0.00  0.00     0.259 C 
ATOM      4  O1  non A   1      -8.722  65.914  54.536  0.00  0.00    -0.265 OA
BRANCH   3   5
ATOM      5  C15 non A   1      -9.553  63.670  54.831  0.00  0.00     0.111 C 
BRANCH   5   6
ATOM      6  C14 non A   1      -8.658  62.730  54.119  0.00  0.00     0.010 C 
BRANCH   6   7
ATOM      7  C13 non A   1      -8.227  61.517  54.870  0.00  0.00     0.000 C 
BRANCH   7   8
ATOM      8  C12 non A   1      -7.198  60.653  54.250  0.00  0.00     0.000 C 
BRANCH   8   9
ATOM      9  C11 non A   1      -7.338  59.196  54.681  0.00  0.00     0.000 C 
BRANCH   9  10
ATOM     10  C10 non A   1      -8.604  58.569  54.190  0.00  0.00     0.000 C 
BRANCH  10  11
ATOM     11  C9  non A   1      -8.244  57.384  53.298  0.00  0.00     0.000 C 
BRANCH  11  12
ATOM     12  C8  non A   1      -9.174  57.259  52.132  0.00  0.00     0.000 C 
BRANCH  12  13
ATOM     13  C7  non A   1      -8.474  57.439  50.818  0.00  0.00     0.000 C 
BRANCH  13  14
ATOM     14  C6  non A   1      -6.980  57.756  51.148  0.00  0.00     0.000 C 
BRANCH  14  15
ATOM     15  C5  non A   1      -6.305  58.249  49.933  0.00  0.00     0.000 C 
BRANCH  15  16
ATOM     16  C4  non A   1      -4.968  57.769  49.614  0.00  0.00     0.000 C 
BRANCH  16  17
ATOM     17  C3  non A   1      -4.441  56.467  49.999  0.00  0.00    -0.000 C 
BRANCH  17  18
ATOM     18  C2  non A   1      -5.159  55.220  49.637  0.00  0.00    -0.005 C 
ATOM     19  C1  non A   1      -5.189  54.259  50.860  0.00  0.00     0.005 C 
ENDBRANCH  17  18
ENDBRANCH  16  17
ENDBRANCH  15  16
ENDBRANCH  14  15
ENDBRANCH  13  14
ENDBRANCH  12  13
ENDBRANCH  11  12
ENDBRANCH  10  11
ENDBRANCH   9  10
ENDBRANCH   8   9
ENDBRANCH   7   8
ENDBRANCH   6   7
ENDBRANCH   5   6
ENDBRANCH   3   5
ENDBRANCH   2   3
ENDBRANCH   1   2
BRANCH   1  20
ATOM     20  C18 non A   1      -9.099  65.765  58.693  0.00  0.00     0.213 C 
BRANCH  20  21
ATOM     21  O3  non A   1      -9.006  67.032  58.103  0.00  0.00    -0.319 OA
BRANCH  21  22
ATOM     22  C19 non A   1     -10.071  67.831  57.764  0.00  0.00     0.258 C 
ATOM     23  O4  non A   1     -10.303  68.045  56.551  0.00  0.00    -0.265 OA
BRANCH  22  24
ATOM     24  C20 non A   1     -10.934  68.430  58.801  0.00  0.00     0.111 C 
BRANCH  24  25
ATOM     25  C21 non A   1     -12.332  67.909  58.768  0.00  0.00     0.010 C 
BRANCH  25  26
ATOM     26  C22 non A   1     -12.494  66.544  59.371  0.00  0.00     0.000 C 
BRANCH  26  27
ATOM     27  C23 non A   1     -13.062  65.550  58.422  0.00  0.00     0.000 C 
BRANCH  27  28
ATOM     28  C24 non A   1     -13.246  66.001  57.018  0.00  0.00     0.000 C 
BRANCH  28  29
ATOM     29  C25 non A   1     -14.657  65.784  56.510  0.00  0.00     0.004 C 
BRANCH  29  30
ATOM     30  C26 non A   1     -14.544  64.786  55.347  0.00  0.00     0.027 C 
BRANCH  30  31
ATOM     31  C27 non A   1     -15.186  63.510  55.674  0.00  0.00    -0.031 C 
ATOM     32  C28 non A   1     -14.488  62.409  55.781  0.00  0.00    -0.031 C 
BRANCH  32  33
ATOM     33  C29 non A   1     -13.044  62.236  55.608  0.00  0.00     0.027 C 
BRANCH  33  34
ATOM     34  C30 non A   1     -12.682  61.438  54.368  0.00  0.00     0.003 C 
BRANCH  34  35
ATOM     35  C31 non A   1     -11.714  60.314  54.666  0.00  0.00    -0.004 C 
ATOM     36  C32 non A   1     -11.388  60.396  56.147  0.00  0.00     0.005 C 
ENDBRANCH  34  35
ENDBRANCH  33  34
ENDBRANCH  32  33
ENDBRANCH  30  31
ENDBRANCH  29  30
ENDBRANCH  28  29
ENDBRANCH  27  28
ENDBRANCH  26  27
ENDBRANCH  25  26
ENDBRANCH  24  25
ENDBRANCH  22  24
ENDBRANCH  21  22
ENDBRANCH  20  21
ENDBRANCH   1  20
BRANCH   1  37
ATOM     37  C33 non A   1      -8.210  63.470  58.322  0.00  0.00     0.217 C 
BRANCH  37  38
ATOM     38  O5  non A   1      -9.012  62.374  58.610  0.00  0.00    -0.280 OA
BRANCH  38  39
ATOM     39  P1  non A   1      -8.868  61.900  60.223  0.00  0.00     0.422 P 
ATOM     40  O6  non A   1     -10.094  60.825  60.673  0.00  0.00    -0.617 OA
ATOM     41  O7  non A   1      -8.860  63.281  61.174  0.00  0.00    -0.617 OA
ATOM     42  O8  non A   1      -7.532  61.206  60.396  0.00  0.00    -0.617 OA
ENDBRANCH  38  39
ENDBRANCH  37  38
ENDBRANCH   1  37
TORSDOF 33
ENDMDL
MODEL 2
REMARK VINA RESULT:      -3.0      1.349      2.003
REMARK WARNING: 32 MAX_TORS EXCEEDED!!!
REMARK  33 active torsions:
REMARK  status: ('A' for Active; 'I' for Inactive)
REMARK    1  A    between atoms: C2_2  and  C3_3 
REMARK    2  A    between atoms: C3_3  and  C4_4 
REMARK    3  A    between atoms: C4_4  and  C5_5 
REMARK    4  A    between atoms: C5_5  and  C6_6 
REMARK    5  A    between atoms: C6_6  and  C7_7 
REMARK    6  A    between atoms: C7_7  and  C8_8 
REMARK    7  A    between atoms: C8_8  and  C9_9 
REMARK    8  A    between atoms: C9_9  and  C10_10 
REMARK    9  A    between atoms: C10_10  and  C11_11 
REMARK   10  A    between atoms: C11_11  and  C12_12 
REMARK   11  A    between atoms: C12_12  and  C13_13 
REMARK   12  A    between atoms: C13_13  and  C14_14 
REMARK   13  A    between atoms: C14_14  and  C15_15 
REMARK   14  A    between atoms: C15_15  and  C16_16 
REMARK   15  A    between atoms: C16_16  and  O2_18 
REMARK   16  A    between atoms: O2_18  and  C17_19 
REMARK   17  A    between atoms: C17_19  and  C18_20 
REMARK   18  A    between atoms: C17_19  and  C33_37 
REMARK   19  A    between atoms: C18_20  and  O3_21 
REMARK   20  A    between atoms: O3_21  and  C19_22 
REMARK   21  A    between atoms: C19_22  and  C20_24 
REMARK   22  A    between atoms: C20_24  and  C21_25 
REMARK   23  A    between atoms: C21_25  and  C22_26 
REMARK   24  A    between atoms: C22_26  and  C23_27 
REMARK   25  A    between atoms: C23_27  and  C24_28 
REMARK   26  A    between atoms: C24_28  and  C25_29 
REMARK   27  A    between atoms: C25_29  and  C26_30 
REMARK   28  A    between atoms: C26_30  and  C27_31 
REMARK   29  A    between atoms: C28_32  and  C29_33 
REMARK   30  A    between atoms: C29_33  and  C30_34 
REMARK   31  A    between atoms: C30_34  and  C31_35 
REMARK   32  A    between atoms: C33_37  and  O5_38 
REMARK   33  A    between atoms: O5_38  and  P1_39 
ROOT
ATOM      1  C17 non A   1      -9.250  64.881  58.177  0.00  0.00     0.180 C 
ENDROOT
BRANCH   1   2
ATOM      2  O2  non A   1      -8.596  65.260  56.989  0.00  0.00    -0.312 OA
BRANCH   2   3
ATOM      3  C16 non A   1      -9.112  65.059  55.710  0.00  0.00     0.259 C 
ATOM      4  O1  non A   1      -9.047  66.045  54.917  0.00  0.00    -0.265 OA
BRANCH   3   5
ATOM      5  C15 non A   1      -9.701  63.761  55.332  0.00  0.00     0.111 C 
BRANCH   5   6
ATOM      6  C14 non A   1      -8.743  62.864  54.646  0.00  0.00     0.010 C 
BRANCH   6   7
ATOM      7  C13 non A   1      -8.567  61.503  55.227  0.00  0.00     0.000 C 
BRANCH   7   8
ATOM      8  C12 non A   1      -7.356  60.743  54.845  0.00  0.00     0.000 C 
BRANCH   8   9
ATOM      9  C11 non A   1      -7.616  59.240  54.798  0.00  0.00     0.000 C 
BRANCH   9  10
ATOM     10  C10 non A   1      -8.444  58.834  53.620  0.00  0.00     0.000 C 
BRANCH  10  11
ATOM     11  C9  non A   1      -7.776  57.639  52.946  0.00  0.00     0.000 C 
BRANCH  11  12
ATOM     12  C8  non A   1      -8.144  57.535  51.499  0.00  0.00     0.000 C 
BRANCH  12  13
ATOM     13  C7  non A   1      -6.944  57.384  50.612  0.00  0.00     0.000 C 
BRANCH  13  14
ATOM     14  C6  non A   1      -6.294  58.800  50.495  0.00  0.00     0.000 C 
BRANCH  14  15
ATOM     15  C5  non A   1      -5.405  58.834  49.320  0.00  0.00     0.000 C 
BRANCH  15  16
ATOM     16  C4  non A   1      -3.999  59.169  49.496  0.00  0.00     0.000 C 
BRANCH  16  17
ATOM     17  C3  non A   1      -3.386  59.526  50.769  0.00  0.00    -0.000 C 
BRANCH  17  18
ATOM     18  C2  non A   1      -3.552  60.886  51.337  0.00  0.00    -0.005 C 
ATOM     19  C1  non A   1      -4.041  60.783  52.810  0.00  0.00     0.005 C 
ENDBRANCH  17  18
ENDBRANCH  16  17
ENDBRANCH  15  16
ENDBRANCH  14  15
ENDBRANCH  13  14
ENDBRANCH  12  13
ENDBRANCH  11  12
ENDBRANCH  10  11
ENDBRANCH   9  10
ENDBRANCH   8   9
ENDBRANCH   7   8
ENDBRANCH   6   7
ENDBRANCH   5   6
ENDBRANCH   3   5
ENDBRANCH   2   3
ENDBRANCH   1   2
BRANCH   1  20
ATOM     20  C18 non A   1      -9.243  66.023  59.150  0.00  0.00     0.213 C 
BRANCH  20  21
ATOM     21  O3  non A   1      -9.316  67.295  58.568  0.00  0.00    -0.319 OA
BRANCH  21  22
ATOM     22  C19 non A   1     -10.476  67.950  58.230  0.00  0.00     0.258 C 
ATOM     23  O4  non A   1     -10.793  68.029  57.019  0.00  0.00    -0.265 OA
BRANCH  22  24
ATOM     24  C20 non A   1     -11.342  68.549  59.264  0.00  0.00     0.111 C 
BRANCH  24  25
ATOM     25  C21 non A   1     -12.743  68.037  59.221  0.00  0.00     0.010 C 
BRANCH  25  26
ATOM     26  C22 non A   1     -12.890  66.611  59.667  0.00  0.00     0.000 C 
BRANCH  26  27
ATOM     27  C23 non A   1     -14.201  66.016  59.297  0.00  0.00     0.000 C 
BRANCH  27  28
ATOM     28  C24 non A   1     -14.217  64.553  59.034  0.00  0.00     0.000 C 
BRANCH  28  29
ATOM     29  C25 non A   1     -15.212  64.158  57.962  0.00  0.00     0.004 C 
BRANCH  29  30
ATOM     30  C26 non A   1     -14.538  63.050  57.138  0.00  0.00     0.027 C 
BRANCH  30  31
ATOM     31  C27 non A   1     -14.623  61.754  57.814  0.00  0.00    -0.031 C 
ATOM     32  C28 non A   1     -13.559  61.016  58.003  0.00  0.00    -0.031 C 
BRANCH  32  33
ATOM     33  C29 non A   1     -12.179  61.307  57.610  0.00  0.00     0.027 C 
BRANCH  33  34
ATOM     34  C30 non A   1     -11.588  60.258  56.685  0.00  0.00     0.003 C 
BRANCH  34  35
ATOM     35  C31 non A   1     -12.469  59.984  55.486  0.00  0.00    -0.004 C 
ATOM     36  C32 non A   1     -12.101  61.006  54.426  0.00  0.00     0.005 C 
ENDBRANCH  34  35
ENDBRANCH  33  34
ENDBRANCH  32  33
ENDBRANCH  30  31
ENDBRANCH  29  30
ENDBRANCH  28  29
ENDBRANCH  27  28
ENDBRANCH  26  27
ENDBRANCH  25  26
ENDBRANCH  24  25
ENDBRANCH  22  24
ENDBRANCH  21  22
ENDBRANCH  20  21
ENDBRANCH   1  20
BRANCH   1  37
ATOM     37  C33 non A   1      -8.415  63.716  58.723  0.00  0.00     0.217 C 
BRANCH  37  38
ATOM     38  O5  non A   1      -9.198  62.580  58.878  0.00  0.00    -0.280 OA
BRANCH  38  39
ATOM     39  P1  non A   1      -9.036  61.915  60.420  0.00  0.00     0.422 P 
ATOM     40  O6  non A   1     -10.256  60.791  60.750  0.00  0.00    -0.617 OA
ATOM     41  O7  non A   1      -9.018  63.171  61.531  0.00  0.00    -0.617 OA
ATOM     42  O8  non A   1      -7.698  61.208  60.493  0.00  0.00    -0.617 OA
ENDBRANCH  38  39
ENDBRANCH  37  38
ENDBRANCH   1  37
TORSDOF 33
ENDMDL
MODEL 3
REMARK VINA RESULT:      -2.9     19.276     24.628
REMARK WARNING: 32 MAX_TORS EXCEEDED!!!
REMARK  33 active torsions:
REMARK  status: ('A' for Active; 'I' for Inactive)
REMARK    1  A    between atoms: C2_2  and  C3_3 
REMARK    2  A    between atoms: C3_3  and  C4_4 
REMARK    3  A    between atoms: C4_4  and  C5_5 
REMARK    4  A    between atoms: C5_5  and  C6_6 
REMARK    5  A    between atoms: C6_6  and  C7_7 
REMARK    6  A    between atoms: C7_7  and  C8_8 
REMARK    7  A    between atoms: C8_8  and  C9_9 
REMARK    8  A    between atoms: C9_9  and  C10_10 
REMARK    9  A    between atoms: C10_10  and  C11_11 
REMARK   10  A    between atoms: C11_11  and  C12_12 
REMARK   11  A    between atoms: C12_12  and  C13_13 
REMARK   12  A    between atoms: C13_13  and  C14_14 
REMARK   13  A    between atoms: C14_14  and  C15_15 
REMARK   14  A    between atoms: C15_15  and  C16_16 
REMARK   15  A    between atoms: C16_16  and  O2_18 
REMARK   16  A    between atoms: O2_18  and  C17_19 
REMARK   17  A    between atoms: C17_19  and  C18_20 
REMARK   18  A    between atoms: C17_19  and  C33_37 
REMARK   19  A    between atoms: C18_20  and  O3_21 
REMARK   20  A    between atoms: O3_21  and  C19_22 
REMARK   21  A    between atoms: C19_22  and  C20_24 
REMARK   22  A    between atoms: C20_24  and  C21_25 
REMARK   23  A    between atoms: C21_25  and  C22_26 
REMARK   24  A    between atoms: C22_26  and  C23_27 
REMARK   25  A    between atoms: C23_27  and  C24_28 
REMARK   26  A    between atoms: C24_28  and  C25_29 
REMARK   27  A    between atoms: C25_29  and  C26_30 
REMARK   28  A    between atoms: C26_30  and  C27_31 
REMARK   29  A    between atoms: C28_32  and  C29_33 
REMARK   30  A    between atoms: C29_33  and  C30_34 
REMARK   31  A    between atoms: C30_34  and  C31_35 
REMARK   32  A    between atoms: C33_37  and  O5_38 
REMARK   33  A    between atoms: O5_38  and  P1_39 
ROOT
ATOM      1  C17 non A   1      -2.708  37.979  54.552  0.00  0.00     0.180 C 
ENDROOT
BRANCH   1   2
ATOM      2  O2  non A   1      -3.501  38.412  53.472  0.00  0.00    -0.312 OA
BRANCH   2   3
ATOM      3  C16 non A   1      -3.158  39.455  52.614  0.00  0.00     0.259 C 
ATOM      4  O1  non A   1      -2.768  39.124  51.455  0.00  0.00    -0.265 OA
BRANCH   3   5
ATOM      5  C15 non A   1      -3.248  40.858  53.060  0.00  0.00     0.111 C 
BRANCH   5   6
ATOM      6  C14 non A   1      -4.558  41.196  53.662  0.00  0.00     0.010 C 
BRANCH   6   7
ATOM      7  C13 non A   1      -5.564  41.827  52.762  0.00  0.00     0.000 C 
BRANCH   7   8
ATOM      8  C12 non A   1      -6.982  41.440  52.937  0.00  0.00     0.000 C 
BRANCH   8   9
ATOM      9  C11 non A   1      -7.936  42.527  52.451  0.00  0.00     0.000 C 
BRANCH   9  10
ATOM     10  C10 non A   1      -7.350  43.899  52.560  0.00  0.00     0.000 C 
BRANCH  10  11
ATOM     11  C9  non A   1      -8.153  44.689  53.590  0.00  0.00     0.000 C 
BRANCH  11  12
ATOM     12  C8  non A   1      -7.272  45.525  54.465  0.00  0.00     0.000 C 
BRANCH  12  13
ATOM     13  C7  non A   1      -6.243  44.709  55.189  0.00  0.00     0.000 C 
BRANCH  13  14
ATOM     14  C6  non A   1      -5.807  45.546  56.434  0.00  0.00     0.000 C 
BRANCH  14  15
ATOM     15  C5  non A   1      -7.001  46.128  57.075  0.00  0.00     0.000 C 
BRANCH  15  16
ATOM     16  C4  non A   1      -6.951  46.489  58.485  0.00  0.00     0.000 C 
BRANCH  16  17
ATOM     17  C3  non A   1      -7.620  45.756  59.552  0.00  0.00    -0.000 C 
BRANCH  17  18
ATOM     18  C2  non A   1      -6.836  44.993  60.555  0.00  0.00    -0.005 C 
ATOM     19  C1  non A   1      -5.929  43.957  59.832  0.00  0.00     0.005 C 
ENDBRANCH  17  18
ENDBRANCH  16  17
ENDBRANCH  15  16
ENDBRANCH  14  15
ENDBRANCH  13  14
ENDBRANCH  12  13
ENDBRANCH  11  12
ENDBRANCH  10  11
ENDBRANCH   9  10
ENDBRANCH   8   9
ENDBRANCH   7   8
ENDBRANCH   6   7
ENDBRANCH   5   6
ENDBRANCH   3   5
ENDBRANCH   2   3
ENDBRANCH   1   2
BRANCH   1  20
ATOM     20  C18 non A   1      -1.257  38.029  54.172  0.00  0.00     0.213 C 
BRANCH  20  21
ATOM     21  O3  non A   1      -0.430  38.696  55.085  0.00  0.00    -0.319 OA
BRANCH  21  22
ATOM     22  C19 non A   1      -0.168  40.045  55.082  0.00  0.00     0.258 C 
ATOM     23  O4  non A   1       0.560  40.516  54.177  0.00  0.00    -0.265 OA
BRANCH  22  24
ATOM     24  C20 non A   1      -0.731  40.932  56.119  0.00  0.00     0.111 C 
BRANCH  24  25
ATOM     25  C21 non A   1      -0.456  40.454  57.506  0.00  0.00     0.010 C 
BRANCH  25  26
ATOM     26  C22 non A   1      -0.621  41.508  58.563  0.00  0.00     0.000 C 
BRANCH  26  27
ATOM     27  C23 non A   1      -1.761  41.241  59.480  0.00  0.00     0.000 C 
BRANCH  27  28
ATOM     28  C24 non A   1      -3.121  41.522  58.950  0.00  0.00     0.000 C 
BRANCH  28  29
ATOM     29  C25 non A   1      -3.877  40.265  58.571  0.00  0.00     0.004 C 
BRANCH  29  30
ATOM     30  C26 non A   1      -3.324  39.146  59.468  0.00  0.00     0.027 C 
BRANCH  30  31
ATOM     31  C27 non A   1      -2.711  38.079  58.673  0.00  0.00    -0.031 C 
ATOM     32  C28 non A   1      -1.712  37.376  59.140  0.00  0.00    -0.031 C 
BRANCH  32  33
ATOM     33  C29 non A   1      -1.052  37.499  60.441  0.00  0.00     0.027 C 
BRANCH  33  34
ATOM     34  C30 non A   1       0.237  38.300  60.383  0.00  0.00     0.003 C 
BRANCH  34  35
ATOM     35  C31 non A   1       1.457  37.420  60.214  0.00  0.00    -0.004 C 
ATOM     36  C32 non A   1       2.153  37.871  58.943  0.00  0.00     0.005 C 
ENDBRANCH  34  35
ENDBRANCH  33  34
ENDBRANCH  32  33
ENDBRANCH  30  31
ENDBRANCH  29  30
ENDBRANCH  28  29
ENDBRANCH  27  28
ENDBRANCH  26  27
ENDBRANCH  25  26
ENDBRANCH  24  25
ENDBRANCH  22  24
ENDBRANCH  21  22
ENDBRANCH  20  21
ENDBRANCH   1  20
BRANCH   1  37
ATOM     37  C33 non A   1      -3.143  36.528  54.792  0.00  0.00     0.217 C 
BRANCH  37  38
ATOM     38  O5  non A   1      -2.224  35.642  54.245  0.00  0.00    -0.280 OA
BRANCH  38  39
ATOM     39  P1  non A   1      -2.884  34.770  52.961  0.00  0.00     0.422 P 
ATOM     40  O6  non A   1      -2.332  33.172  52.937  0.00  0.00    -0.617 OA
ATOM     41  O7  non A   1      -2.525  35.583  51.538  0.00  0.00    -0.617 OA
ATOM     42  O8  non A   1      -4.391  34.756  53.122  0.00  0.00    -0.617 OA
ENDBRANCH  38  39
ENDBRANCH  37  38
ENDBRANCH   1  37
TORSDOF 33
ENDMDL
MODEL 4
REMARK VINA RESULT:      -2.9     18.741     26.247
REMARK WARNING: 32 MAX_TORS EXCEEDED!!!
REMARK  33 active torsions:
REMARK  status: ('A' for Active; 'I' for Inactive)
REMARK    1  A    between atoms: C2_2  and  C3_3 
REMARK    2  A    between atoms: C3_3  and  C4_4 
REMARK    3  A    between atoms: C4_4  and  C5_5 
REMARK    4  A    between atoms: C5_5  and  C6_6 
REMARK    5  A    between atoms: C6_6  and  C7_7 
REMARK    6  A    between atoms: C7_7  and  C8_8 
REMARK    7  A    between atoms: C8_8  and  C9_9 
REMARK    8  A    between atoms: C9_9  and  C10_10 
REMARK    9  A    between atoms: C10_10  and  C11_11 
REMARK   10  A    between atoms: C11_11  and  C12_12 
REMARK   11  A    between atoms: C12_12  and  C13_13 
REMARK   12  A    between atoms: C13_13  and  C14_14 
REMARK   13  A    between atoms: C14_14  and  C15_15 
REMARK   14  A    between atoms: C15_15  and  C16_16 
REMARK   15  A    between atoms: C16_16  and  O2_18 
REMARK   16  A    between atoms: O2_18  and  C17_19 
REMARK   17  A    between atoms: C17_19  and  C18_20 
REMARK   18  A    between atoms: C17_19  and  C33_37 
REMARK   19  A    between atoms: C18_20  and  O3_21 
REMARK   20  A    between atoms: O3_21  and  C19_22 
REMARK   21  A    between atoms: C19_22  and  C20_24 
REMARK   22  A    between atoms: C20_24  and  C21_25 
REMARK   23  A    between atoms: C21_25  and  C22_26 
REMARK   24  A    between atoms: C22_26  and  C23_27 
REMARK   25  A    between atoms: C23_27  and  C24_28 
REMARK   26  A    between atoms: C24_28  and  C25_29 
REMARK   27  A    between atoms: C25_29  and  C26_30 
REMARK   28  A    between atoms: C26_30  and  C27_31 
REMARK   29  A    between atoms: C28_32  and  C29_33 
REMARK   30  A    between atoms: C29_33  and  C30_34 
REMARK   31  A    between atoms: C30_34  and  C31_35 
REMARK   32  A    between atoms: C33_37  and  O5_38 
REMARK   33  A    between atoms: O5_38  and  P1_39 
ROOT
ATOM      1  C17 non A   1      -2.610  37.837  54.271  0.00  0.00     0.180 C 
ENDROOT
BRANCH   1   2
ATOM      2  O2  non A   1      -3.286  38.343  53.144  0.00  0.00    -0.312 OA
BRANCH   2   3
ATOM      3  C16 non A   1      -2.805  39.372  52.337  0.00  0.00     0.259 C 
ATOM      4  O1  non A   1      -2.330  39.030  51.213  0.00  0.00    -0.265 OA
BRANCH   3   5
ATOM      5  C15 non A   1      -2.854  40.773  52.794  0.00  0.00     0.111 C 
BRANCH   5   6
ATOM      6  C14 non A   1      -4.145  41.137  53.423  0.00  0.00     0.010 C 
BRANCH   6   7
ATOM      7  C13 non A   1      -5.153  41.798  52.546  0.00  0.00     0.000 C 
BRANCH   7   8
ATOM      8  C12 non A   1      -6.572  41.417  52.721  0.00  0.00     0.000 C 
BRANCH   8   9
ATOM      9  C11 non A   1      -7.520  42.541  52.313  0.00  0.00     0.000 C 
BRANCH   9  10
ATOM     10  C10 non A   1      -6.866  43.886  52.340  0.00  0.00     0.000 C 
BRANCH  10  11
ATOM     11  C9  non A   1      -7.639  44.782  53.303  0.00  0.00     0.000 C 
BRANCH  11  12
ATOM     12  C8  non A   1      -6.807  45.189  54.479  0.00  0.00     0.000 C 
BRANCH  12  13
ATOM     13  C7  non A   1      -6.623  44.073  55.465  0.00  0.00     0.000 C 
BRANCH  13  14
ATOM     14  C6  non A   1      -7.196  44.583  56.827  0.00  0.00     0.000 C 
BRANCH  14  15
ATOM     15  C5  non A   1      -6.235  45.517  57.442  0.00  0.00     0.000 C 
BRANCH  15  16
ATOM     16  C4  non A   1      -6.714  46.522  58.380  0.00  0.00     0.000 C 
BRANCH  16  17
ATOM     17  C3  non A   1      -7.971  46.438  59.112  0.00  0.00    -0.000 C 
BRANCH  17  18
ATOM     18  C2  non A   1      -7.981  46.264  60.586  0.00  0.00    -0.005 C 
ATOM     19  C1  non A   1      -8.530  47.553  61.262  0.00  0.00     0.005 C 
ENDBRANCH  17  18
ENDBRANCH  16  17
ENDBRANCH  15  16
ENDBRANCH  14  15
ENDBRANCH  13  14
ENDBRANCH  12  13
ENDBRANCH  11  12
ENDBRANCH  10  11
ENDBRANCH   9  10
ENDBRANCH   8   9
ENDBRANCH   7   8
ENDBRANCH   6   7
ENDBRANCH   5   6
ENDBRANCH   3   5
ENDBRANCH   2   3
ENDBRANCH   1   2
BRANCH   1  20
ATOM     20  C18 non A   1      -1.164  37.613  53.943  0.00  0.00     0.213 C 
BRANCH  20  21
ATOM     21  O3  non A   1      -0.259  38.308  54.755  0.00  0.00    -0.319 OA
BRANCH  21  22
ATOM     22  C19 non A   1      -0.078  39.670  54.760  0.00  0.00     0.258 C 
ATOM     23  O4  non A   1      -0.691  40.358  55.610  0.00  0.00    -0.265 OA
BRANCH  22  24
ATOM     24  C20 non A   1       0.821  40.322  53.787  0.00  0.00     0.111 C 
BRANCH  24  25
ATOM     25  C21 non A   1       1.355  39.377  52.763  0.00  0.00     0.010 C 
BRANCH  25  26
ATOM     26  C22 non A   1       2.723  39.729  52.256  0.00  0.00     0.000 C 
BRANCH  26  27
ATOM     27  C23 non A   1       3.671  38.584  52.291  0.00  0.00     0.000 C 
BRANCH  27  28
ATOM     28  C24 non A   1       3.895  37.947  53.616  0.00  0.00     0.000 C 
BRANCH  28  29
ATOM     29  C25 non A   1       4.100  36.449  53.522  0.00  0.00     0.004 C 
BRANCH  29  30
ATOM     30  C26 non A   1       5.241  36.235  52.515  0.00  0.00     0.027 C 
BRANCH  30  31
ATOM     31  C27 non A   1       4.840  35.326  51.439  0.00  0.00    -0.031 C 
ATOM     32  C28 non A   1       5.382  35.401  50.251  0.00  0.00    -0.031 C 
BRANCH  32  33
ATOM     33  C29 non A   1       6.412  36.333  49.787  0.00  0.00     0.027 C 
BRANCH  33  34
ATOM     34  C30 non A   1       5.892  37.347  48.783  0.00  0.00     0.003 C 
BRANCH  34  35
ATOM     35  C31 non A   1       6.422  37.100  47.387  0.00  0.00    -0.004 C 
ATOM     36  C32 non A   1       5.225  36.766  46.515  0.00  0.00     0.005 C 
ENDBRANCH  34  35
ENDBRANCH  33  34
ENDBRANCH  32  33
ENDBRANCH  30  31
ENDBRANCH  29  30
ENDBRANCH  28  29
ENDBRANCH  27  28
ENDBRANCH  26  27
ENDBRANCH  25  26
ENDBRANCH  24  25
ENDBRANCH  22  24
ENDBRANCH  21  22
ENDBRANCH  20  21
ENDBRANCH   1  20
BRANCH   1  37
ATOM     37  C33 non A   1      -3.300  36.499  54.565  0.00  0.00     0.217 C 
BRANCH  37  38
ATOM     38  O5  non A   1      -4.591  36.704  55.035  0.00  0.00    -0.280 OA
BRANCH  38  39
ATOM     39  P1  non A   1      -5.571  35.356  54.777  0.00  0.00     0.422 P 
ATOM     40  O6  non A   1      -7.136  35.797  54.311  0.00  0.00    -0.617 OA
ATOM     41  O7  non A   1      -5.567  34.432  56.177  0.00  0.00    -0.617 OA
ATOM     42  O8  non A   1      -4.955  34.526  53.669  0.00  0.00    -0.617 OA
ENDBRANCH  38  39
ENDBRANCH  37  38
ENDBRANCH   1  37
TORSDOF 33
ENDMDL
MODEL 5
REMARK VINA RESULT:      -2.9      2.706      3.697
REMARK WARNING: 32 MAX_TORS EXCEEDED!!!
REMARK  33 active torsions:
REMARK  status: ('A' for Active; 'I' for Inactive)
REMARK    1  A    between atoms: C2_2  and  C3_3 
REMARK    2  A    between atoms: C3_3  and  C4_4 
REMARK    3  A    between atoms: C4_4  and  C5_5 
REMARK    4  A    between atoms: C5_5  and  C6_6 
REMARK    5  A    between atoms: C6_6  and  C7_7 
REMARK    6  A    between atoms: C7_7  and  C8_8 
REMARK    7  A    between atoms: C8_8  and  C9_9 
REMARK    8  A    between atoms: C9_9  and  C10_10 
REMARK    9  A    between atoms: C10_10  and  C11_11 
REMARK   10  A    between atoms: C11_11  and  C12_12 
REMARK   11  A    between atoms: C12_12  and  C13_13 
REMARK   12  A    between atoms: C13_13  and  C14_14 
REMARK   13  A    between atoms: C14_14  and  C15_15 
REMARK   14  A    between atoms: C15_15  and  C16_16 
REMARK   15  A    between atoms: C16_16  and  O2_18 
REMARK   16  A    between atoms: O2_18  and  C17_19 
REMARK   17  A    between atoms: C17_19  and  C18_20 
REMARK   18  A    between atoms: C17_19  and  C33_37 
REMARK   19  A    between atoms: C18_20  and  O3_21 
REMARK   20  A    between atoms: O3_21  and  C19_22 
REMARK   21  A    between atoms: C19_22  and  C20_24 
REMARK   22  A    between atoms: C20_24  and  C21_25 
REMARK   23  A    between atoms: C21_25  and  C22_26 
REMARK   24  A    between atoms: C22_26  and  C23_27 
REMARK   25  A    between atoms: C23_27  and  C24_28 
REMARK   26  A    between atoms: C24_28  and  C25_29 
REMARK   27  A    between atoms: C25_29  and  C26_30 
REMARK   28  A    between atoms: C26_30  and  C27_31 
REMARK   29  A    between atoms: C28_32  and  C29_33 
REMARK   30  A    between atoms: C29_33  and  C30_34 
REMARK   31  A    between atoms: C30_34  and  C31_35 
REMARK   32  A    between atoms: C33_37  and  O5_38 
REMARK   33  A    between atoms: O5_38  and  P1_39 
ROOT
ATOM      1  C17 non A   1      -9.633  64.771  56.966  0.00  0.00     0.180 C 
ENDROOT
BRANCH   1   2
ATOM      2  O2  non A   1      -9.103  65.279  55.764  0.00  0.00    -0.312 OA
BRANCH   2   3
ATOM      3  C16 non A   1      -9.136  64.605  54.545  0.00  0.00     0.259 C 
ATOM      4  O1  non A   1      -8.884  65.297  53.514  0.00  0.00    -0.265 OA
BRANCH   3   5
ATOM      5  C15 non A   1      -9.455  63.167  54.488  0.00  0.00     0.111 C 
BRANCH   5   6
ATOM      6  C14 non A   1      -8.253  62.304  54.433  0.00  0.00     0.010 C 
BRANCH   6   7
ATOM      7  C13 non A   1      -8.473  60.839  54.603  0.00  0.00     0.000 C 
BRANCH   7   8
ATOM      8  C12 non A   1      -7.287  59.955  54.544  0.00  0.00     0.000 C 
BRANCH   8   9
ATOM      9  C11 non A   1      -7.676  58.484  54.427  0.00  0.00     0.000 C 
BRANCH   9  10
ATOM     10  C10 non A   1      -8.536  58.209  53.235  0.00  0.00     0.000 C 
BRANCH  10  11
ATOM     11  C9  non A   1      -7.811  57.215  52.332  0.00  0.00     0.000 C 
BRANCH  11  12
ATOM     12  C8  non A   1      -7.753  57.688  50.913  0.00  0.00     0.000 C 
BRANCH  12  13
ATOM     13  C7  non A   1      -7.302  56.613  49.969  0.00  0.00     0.000 C 
BRANCH  13  14
ATOM     14  C6  non A   1      -6.107  55.883  50.662  0.00  0.00     0.000 C 
BRANCH  14  15
ATOM     15  C5  non A   1      -4.866  56.161  49.915  0.00  0.00     0.000 C 
BRANCH  15  16
ATOM     16  C4  non A   1      -3.583  55.794  50.498  0.00  0.00     0.000 C 
BRANCH  16  17
ATOM     17  C3  non A   1      -2.299  55.923  49.822  0.00  0.00    -0.000 C 
BRANCH  17  18
ATOM     18  C2  non A   1      -1.190  54.982  50.114  0.00  0.00    -0.005 C 
ATOM     19  C1  non A   1      -0.786  55.097  51.611  0.00  0.00     0.005 C 
ENDBRANCH  17  18
ENDBRANCH  16  17
ENDBRANCH  15  16
ENDBRANCH  14  15
ENDBRANCH  13  14
ENDBRANCH  12  13
ENDBRANCH  11  12
ENDBRANCH  10  11
ENDBRANCH   9  10
ENDBRANCH   8   9
ENDBRANCH   7   8
ENDBRANCH   6   7
ENDBRANCH   5   6
ENDBRANCH   3   5
ENDBRANCH   2   3
ENDBRANCH   1   2
BRANCH   1  20
ATOM     20  C18 non A   1     -10.380  65.851  57.692  0.00  0.00     0.213 C 
BRANCH  20  21
ATOM     21  O3  non A   1     -11.610  65.456  58.234  0.00  0.00    -0.319 OA
BRANCH  21  22
ATOM     22  C19 non A   1     -12.677  66.287  58.473  0.00  0.00     0.258 C 
ATOM     23  O4  non A   1     -12.498  67.318  59.162  0.00  0.00    -0.265 OA
BRANCH  22  24
ATOM     24  C20 non A   1     -14.016  65.982  57.929  0.00  0.00     0.111 C 
BRANCH  24  25
ATOM     25  C21 non A   1     -14.802  67.205  57.595  0.00  0.00     0.010 C 
BRANCH  25  26
ATOM     26  C22 non A   1     -15.932  66.967  56.636  0.00  0.00     0.000 C 
BRANCH  26  27
ATOM     27  C23 non A   1     -15.660  67.490  55.271  0.00  0.00     0.000 C 
BRANCH  27  28
ATOM     28  C24 non A   1     -14.583  66.813  54.502  0.00  0.00     0.000 C 
BRANCH  28  29
ATOM     29  C25 non A   1     -13.356  67.681  54.318  0.00  0.00     0.004 C 
BRANCH  29  30
ATOM     30  C26 non A   1     -12.172  66.717  54.143  0.00  0.00     0.027 C 
BRANCH  30  31
ATOM     31  C27 non A   1     -12.474  65.673  53.161  0.00  0.00    -0.031 C 
ATOM     32  C28 non A   1     -12.016  65.741  51.937  0.00  0.00    -0.031 C 
BRANCH  32  33
ATOM     33  C29 non A   1     -11.180  66.787  51.344  0.00  0.00     0.027 C 
BRANCH  33  34
ATOM     34  C30 non A   1     -11.020  66.642  49.840  0.00  0.00     0.003 C 
BRANCH  34  35
ATOM     35  C31 non A   1     -11.009  67.979  49.130  0.00  0.00    -0.004 C 
ATOM     36  C32 non A   1      -9.981  68.844  49.836  0.00  0.00     0.005 C 
ENDBRANCH  34  35
ENDBRANCH  33  34
ENDBRANCH  32  33
ENDBRANCH  30  31
ENDBRANCH  29  30
ENDBRANCH  28  29
ENDBRANCH  27  28
ENDBRANCH  26  27
ENDBRANCH  25  26
ENDBRANCH  24  25
ENDBRANCH  22  24
ENDBRANCH  21  22
ENDBRANCH  20  21
ENDBRANCH   1  20
BRANCH   1  37
ATOM     37  C33 non A   1      -8.405  64.339  57.777  0.00  0.00     0.217 C 
BRANCH  37  38
ATOM     38  O5  non A   1      -8.367  62.958  57.914  0.00  0.00    -0.280 OA
BRANCH  38  39
ATOM     39  P1  non A   1      -8.576  62.482  59.519  0.00  0.00     0.422 P 
ATOM     40  O6  non A   1      -8.972  63.790  60.514  0.00  0.00    -0.617 OA
ATOM     41  O7  non A   1      -7.174  61.710  60.020  0.00  0.00    -0.617 OA
ATOM     42  O8  non A   1      -9.707  61.476  59.572  0.00  0.00    -0.617 OA
ENDBRANCH  38  39
ENDBRANCH  37  38
ENDBRANCH   1  37
TORSDOF 33
ENDMDL
MODEL 6
REMARK VINA RESULT:      -2.8     19.656     25.852
REMARK WARNING: 32 MAX_TORS EXCEEDED!!!
REMARK  33 active torsions:
REMARK  status: ('A' for Active; 'I' for Inactive)
REMARK    1  A    between atoms: C2_2  and  C3_3 
REMARK    2  A    between atoms: C3_3  and  C4_4 
REMARK    3  A    between atoms: C4_4  and  C5_5 
REMARK    4  A    between atoms: C5_5  and  C6_6 
REMARK    5  A    between atoms: C6_6  and  C7_7 
REMARK    6  A    between atoms: C7_7  and  C8_8 
REMARK    7  A    between atoms: C8_8  and  C9_9 
REMARK    8  A    between atoms: C9_9  and  C10_10 
REMARK    9  A    between atoms: C10_10  and  C11_11 
REMARK   10  A    between atoms: C11_11  and  C12_12 
REMARK   11  A    between atoms: C12_12  and  C13_13 
REMARK   12  A    between atoms: C13_13  and  C14_14 
REMARK   13  A    between atoms: C14_14  and  C15_15 
REMARK   14  A    between atoms: C15_15  and  C16_16 
REMARK   15  A    between atoms: C16_16  and  O2_18 
REMARK   16  A    between atoms: O2_18  and  C17_19 
REMARK   17  A    between atoms: C17_19  and  C18_20 
REMARK   18  A    between atoms: C17_19  and  C33_37 
REMARK   19  A    between atoms: C18_20  and  O3_21 
REMARK   20  A    between atoms: O3_21  and  C19_22 
REMARK   21  A    between atoms: C19_22  and  C20_24 
REMARK   22  A    between atoms: C20_24  and  C21_25 
REMARK   23  A    between atoms: C21_25  and  C22_26 
REMARK   24  A    between atoms: C22_26  and  C23_27 
REMARK   25  A    between atoms: C23_27  and  C24_28 
REMARK   26  A    between atoms: C24_28  and  C25_29 
REMARK   27  A    between atoms: C25_29  and  C26_30 
REMARK   28  A    between atoms: C26_30  and  C27_31 
REMARK   29  A    between atoms: C28_32  and  C29_33 
REMARK   30  A    between atoms: C29_33  and  C30_34 
REMARK   31  A    between atoms: C30_34  and  C31_35 
REMARK   32  A    between atoms: C33_37  and  O5_38 
REMARK   33  A    between atoms: O5_38  and  P1_39 
ROOT
ATOM      1  C17 non A   1      -4.962  39.156  52.485  0.00  0.00     0.180 C 
ENDROOT
BRANCH   1   2
ATOM      2  O2  non A   1      -4.652  40.192  53.388  0.00  0.00    -0.312 OA
BRANCH   2   3
ATOM      3  C16 non A   1      -4.613  41.542  53.051  0.00  0.00     0.259 C 
ATOM      4  O1  non A   1      -3.584  41.936  52.425  0.00  0.00    -0.265 OA
BRANCH   3   5
ATOM      5  C15 non A   1      -5.721  42.443  53.420  0.00  0.00     0.111 C 
BRANCH   5   6
ATOM      6  C14 non A   1      -6.294  43.168  52.262  0.00  0.00     0.010 C 
BRANCH   6   7
ATOM      7  C13 non A   1      -7.500  44.002  52.526  0.00  0.00     0.000 C 
BRANCH   7   8
ATOM      8  C12 non A   1      -8.537  43.446  53.424  0.00  0.00     0.000 C 
BRANCH   8   9
ATOM      9  C11 non A   1      -9.595  44.485  53.788  0.00  0.00     0.000 C 
BRANCH   9  10
ATOM     10  C10 non A   1     -10.989  43.977  53.602  0.00  0.00     0.000 C 
BRANCH  10  11
ATOM     11  C9  non A   1     -10.930  42.471  53.366  0.00  0.00     0.000 C 
BRANCH  11  12
ATOM     12  C8  non A   1     -12.182  41.954  52.729  0.00  0.00     0.000 C 
BRANCH  12  13
ATOM     13  C7  non A   1     -13.421  42.506  53.369  0.00  0.00     0.000 C 
BRANCH  13  14
ATOM     14  C6  non A   1     -14.591  42.252  52.366  0.00  0.00     0.000 C 
BRANCH  14  15
ATOM     15  C5  non A   1     -14.584  40.836  51.955  0.00  0.00     0.000 C 
BRANCH  15  16
ATOM     16  C4  non A   1     -15.073  39.821  52.878  0.00  0.00     0.000 C 
BRANCH  16  17
ATOM     17  C3  non A   1     -14.241  38.804  53.507  0.00  0.00    -0.000 C 
BRANCH  17  18
ATOM     18  C2  non A   1     -13.510  39.092  54.765  0.00  0.00    -0.005 C 
ATOM     19  C1  non A   1     -13.575  37.853  55.703  0.00  0.00     0.005 C 
ENDBRANCH  17  18
ENDBRANCH  16  17
ENDBRANCH  15  16
ENDBRANCH  14  15
ENDBRANCH  13  14
ENDBRANCH  12  13
ENDBRANCH  11  12
ENDBRANCH  10  11
ENDBRANCH   9  10
ENDBRANCH   8   9
ENDBRANCH   7   8
ENDBRANCH   6   7
ENDBRANCH   5   6
ENDBRANCH   3   5
ENDBRANCH   2   3
ENDBRANCH   1   2
BRANCH   1  20
ATOM     20  C18 non A   1      -4.328  39.433  51.153  0.00  0.00     0.213 C 
BRANCH  20  21
ATOM     21  O3  non A   1      -3.671  38.340  50.573  0.00  0.00    -0.319 OA
BRANCH  21  22
ATOM     22  C19 non A   1      -2.327  38.076  50.672  0.00  0.00     0.258 C 
ATOM     23  O4  non A   1      -1.538  38.654  49.888  0.00  0.00    -0.265 OA
BRANCH  22  24
ATOM     24  C20 non A   1      -1.809  37.133  51.683  0.00  0.00     0.111 C 
BRANCH  24  25
ATOM     25  C21 non A   1      -0.359  37.330  51.976  0.00  0.00     0.010 C 
BRANCH  25  26
ATOM     26  C22 non A   1      -0.077  37.878  53.345  0.00  0.00     0.000 C 
BRANCH  26  27
ATOM     27  C23 non A   1       0.161  39.346  53.349  0.00  0.00     0.000 C 
BRANCH  27  28
ATOM     28  C24 non A   1       1.580  39.789  53.330  0.00  0.00     0.000 C 
BRANCH  28  29
ATOM     29  C25 non A   1       2.531  38.743  53.876  0.00  0.00     0.004 C 
BRANCH  29  30
ATOM     30  C26 non A   1       3.934  39.148  53.398  0.00  0.00     0.027 C 
BRANCH  30  31
ATOM     31  C27 non A   1       4.945  38.884  54.425  0.00  0.00    -0.031 C 
ATOM     32  C28 non A   1       5.870  37.975  54.248  0.00  0.00    -0.031 C 
BRANCH  32  33
ATOM     33  C29 non A   1       6.069  37.106  53.086  0.00  0.00     0.027 C 
BRANCH  33  34
ATOM     34  C30 non A   1       5.653  35.667  53.339  0.00  0.00     0.003 C 
BRANCH  34  35
ATOM     35  C31 non A   1       5.681  34.829  52.079  0.00  0.00    -0.004 C 
ATOM     36  C32 non A   1       4.834  35.554  51.049  0.00  0.00     0.005 C 
ENDBRANCH  34  35
ENDBRANCH  33  34
ENDBRANCH  32  33
ENDBRANCH  30  31
ENDBRANCH  29  30
ENDBRANCH  28  29
ENDBRANCH  27  28
ENDBRANCH  26  27
ENDBRANCH  25  26
ENDBRANCH  24  25
ENDBRANCH  22  24
ENDBRANCH  21  22
ENDBRANCH  20  21
ENDBRANCH   1  20
BRANCH   1  37
ATOM     37  C33 non A   1      -6.490  39.197  52.362  0.00  0.00     0.217 C 
BRANCH  37  38
ATOM     38  O5  non A   1      -6.874  39.280  51.030  0.00  0.00    -0.280 OA
BRANCH  38  39
ATOM     39  P1  non A   1      -7.606  37.856  50.500  0.00  0.00     0.422 P 
ATOM     40  O6  non A   1      -6.545  36.906  49.589  0.00  0.00    -0.617 OA
ATOM     41  O7  non A   1      -8.984  38.267  49.636  0.00  0.00    -0.617 OA
ATOM     42  O8  non A   1      -8.038  37.063  51.717  0.00  0.00    -0.617 OA
ENDBRANCH  38  39
ENDBRANCH  37  38
ENDBRANCH   1  37
TORSDOF 33
ENDMDL
MODEL 7
REMARK VINA RESULT:      -2.6     18.390     23.217
REMARK WARNING: 32 MAX_TORS EXCEEDED!!!
REMARK  33 active torsions:
REMARK  status: ('A' for Active; 'I' for Inactive)
REMARK    1  A    between atoms: C2_2  and  C3_3 
REMARK    2  A    between atoms: C3_3  and  C4_4 
REMARK    3  A    between atoms: C4_4  and  C5_5 
REMARK    4  A    between atoms: C5_5  and  C6_6 
REMARK    5  A    between atoms: C6_6  and  C7_7 
REMARK    6  A    between atoms: C7_7  and  C8_8 
REMARK    7  A    between atoms: C8_8  and  C9_9 
REMARK    8  A    between atoms: C9_9  and  C10_10 
REMARK    9  A    between atoms: C10_10  and  C11_11 
REMARK   10  A    between atoms: C11_11  and  C12_12 
REMARK   11  A    between atoms: C12_12  and  C13_13 
REMARK   12  A    between atoms: C13_13  and  C14_14 
REMARK   13  A    between atoms: C14_14  and  C15_15 
REMARK   14  A    between atoms: C15_15  and  C16_16 
REMARK   15  A    between atoms: C16_16  and  O2_18 
REMARK   16  A    between atoms: O2_18  and  C17_19 
REMARK   17  A    between atoms: C17_19  and  C18_20 
REMARK   18  A    between atoms: C17_19  and  C33_37 
REMARK   19  A    between atoms: C18_20  and  O3_21 
REMARK   20  A    between atoms: O3_21  and  C19_22 
REMARK   21  A    between atoms: C19_22  and  C20_24 
REMARK   22  A    between atoms: C20_24  and  C21_25 
REMARK   23  A    between atoms: C21_25  and  C22_26 
REMARK   24  A    between atoms: C22_26  and  C23_27 
REMARK   25  A    between atoms: C23_27  and  C24_28 
REMARK   26  A    between atoms: C24_28  and  C25_29 
REMARK   27  A    between atoms: C25_29  and  C26_30 
REMARK   28  A    between atoms: C26_30  and  C27_31 
REMARK   29  A    between atoms: C28_32  and  C29_33 
REMARK   30  A    between atoms: C29_33  and  C30_34 
REMARK   31  A    between atoms: C30_34  and  C31_35 
REMARK   32  A    between atoms: C33_37  and  O5_38 
REMARK   33  A    between atoms: O5_38  and  P1_39 
ROOT
ATOM      1  C17 non A   1     -10.265  42.292  54.201  0.00  0.00     0.180 C 
ENDROOT
BRANCH   1   2
ATOM      2  O2  non A   1      -9.609  41.965  55.404  0.00  0.00    -0.312 OA
BRANCH   2   3
ATOM      3  C16 non A   1     -10.258  41.532  56.558  0.00  0.00     0.259 C 
ATOM      4  O1  non A   1     -11.156  40.653  56.402  0.00  0.00    -0.265 OA
BRANCH   3   5
ATOM      5  C15 non A   1      -9.900  42.088  57.876  0.00  0.00     0.111 C 
BRANCH   5   6
ATOM      6  C14 non A   1      -8.583  42.767  57.885  0.00  0.00     0.010 C 
BRANCH   6   7
ATOM      7  C13 non A   1      -7.463  42.044  58.552  0.00  0.00     0.000 C 
BRANCH   7   8
ATOM      8  C12 non A   1      -6.323  42.849  59.045  0.00  0.00     0.000 C 
BRANCH   8   9
ATOM      9  C11 non A   1      -6.688  44.322  59.204  0.00  0.00     0.000 C 
BRANCH   9  10
ATOM     10  C10 non A   1      -6.765  44.746  60.636  0.00  0.00     0.000 C 
BRANCH  10  11
ATOM     11  C9  non A   1      -5.616  44.092  61.398  0.00  0.00     0.000 C 
BRANCH  11  12
ATOM     12  C8  non A   1      -5.497  44.622  62.793  0.00  0.00     0.000 C 
BRANCH  12  13
ATOM     13  C7  non A   1      -4.466  45.704  62.909  0.00  0.00     0.000 C 
BRANCH  13  14
ATOM     14  C6  non A   1      -5.096  46.826  63.796  0.00  0.00     0.000 C 
BRANCH  14  15
ATOM     15  C5  non A   1      -4.261  47.027  64.995  0.00  0.00     0.000 C 
BRANCH  15  16
ATOM     16  C4  non A   1      -2.811  47.070  64.858  0.00  0.00     0.000 C 
BRANCH  16  17
ATOM     17  C3  non A   1      -1.875  47.093  65.974  0.00  0.00    -0.000 C 
BRANCH  17  18
ATOM     18  C2  non A   1      -0.913  45.982  66.181  0.00  0.00    -0.005 C 
ATOM     19  C1  non A   1       0.541  46.519  66.058  0.00  0.00     0.005 C 
ENDBRANCH  17  18
ENDBRANCH  16  17
ENDBRANCH  15  16
ENDBRANCH  14  15
ENDBRANCH  13  14
ENDBRANCH  12  13
ENDBRANCH  11  12
ENDBRANCH  10  11
ENDBRANCH   9  10
ENDBRANCH   8   9
ENDBRANCH   7   8
ENDBRANCH   6   7
ENDBRANCH   5   6
ENDBRANCH   3   5
ENDBRANCH   2   3
ENDBRANCH   1   2
BRANCH   1  20
ATOM     20  C18 non A   1      -9.915  41.291  53.140  0.00  0.00     0.213 C 
BRANCH  20  21
ATOM     21  O3  non A   1      -8.630  40.743  53.246  0.00  0.00    -0.319 OA
BRANCH  21  22
ATOM     22  C19 non A   1      -7.703  40.687  52.233  0.00  0.00     0.258 C 
ATOM     23  O4  non A   1      -8.084  40.366  51.083  0.00  0.00    -0.265 OA
BRANCH  22  24
ATOM     24  C20 non A   1      -6.283  41.000  52.484  0.00  0.00     0.111 C 
BRANCH  24  25
ATOM     25  C21 non A   1      -5.349  40.131  51.709  0.00  0.00     0.010 C 
BRANCH  25  26
ATOM     26  C22 non A   1      -4.758  39.002  52.503  0.00  0.00     0.000 C 
BRANCH  26  27
ATOM     27  C23 non A   1      -3.632  39.427  53.375  0.00  0.00     0.000 C 
BRANCH  27  28
ATOM     28  C24 non A   1      -2.706  40.447  52.816  0.00  0.00     0.000 C 
BRANCH  28  29
ATOM     29  C25 non A   1      -1.504  39.835  52.126  0.00  0.00     0.004 C 
BRANCH  29  30
ATOM     30  C26 non A   1      -0.711  39.101  53.218  0.00  0.00     0.027 C 
BRANCH  30  31
ATOM     31  C27 non A   1      -0.172  40.036  54.207  0.00  0.00    -0.031 C 
ATOM     32  C28 non A   1       1.032  39.887  54.696  0.00  0.00    -0.031 C 
BRANCH  32  33
ATOM     33  C29 non A   1       2.009  38.841  54.383  0.00  0.00     0.027 C 
BRANCH  33  34
ATOM     34  C30 non A   1       2.991  39.246  53.298  0.00  0.00     0.003 C 
BRANCH  34  35
ATOM     35  C31 non A   1       4.424  38.932  53.669  0.00  0.00    -0.004 C 
ATOM     36  C32 non A   1       4.414  37.579  54.357  0.00  0.00     0.005 C 
ENDBRANCH  34  35
ENDBRANCH  33  34
ENDBRANCH  32  33
ENDBRANCH  30  31
ENDBRANCH  29  30
ENDBRANCH  28  29
ENDBRANCH  27  28
ENDBRANCH  26  27
ENDBRANCH  25  26
ENDBRANCH  24  25
ENDBRANCH  22  24
ENDBRANCH  21  22
ENDBRANCH  20  21
ENDBRANCH   1  20
BRANCH   1  37
ATOM     37  C33 non A   1      -9.716  43.675  53.826  0.00  0.00     0.217 C 
BRANCH  37  38
ATOM     38  O5  non A   1      -8.914  44.177  54.843  0.00  0.00    -0.280 OA
BRANCH  38  39
ATOM     39  P1  non A   1      -7.385  44.610  54.278  0.00  0.00     0.422 P 
ATOM     40  O6  non A   1      -6.173  43.633  54.936  0.00  0.00    -0.617 OA
ATOM     41  O7  non A   1      -7.142  46.234  54.622  0.00  0.00    -0.617 OA
ATOM     42  O8  non A   1      -7.372  44.445  52.772  0.00  0.00    -0.617 OA
ENDBRANCH  38  39
ENDBRANCH  37  38
ENDBRANCH   1  37
TORSDOF 33
ENDMDL
MODEL 8
REMARK VINA RESULT:      -2.6     19.060     22.107
REMARK WARNING: 32 MAX_TORS EXCEEDED!!!
REMARK  33 active torsions:
REMARK  status: ('A' for Active; 'I' for Inactive)
REMARK    1  A    between atoms: C2_2  and  C3_3 
REMARK    2  A    between atoms: C3_3  and  C4_4 
REMARK    3  A    between atoms: C4_4  and  C5_5 
REMARK    4  A    between atoms: C5_5  and  C6_6 
REMARK    5  A    between atoms: C6_6  and  C7_7 
REMARK    6  A    between atoms: C7_7  and  C8_8 
REMARK    7  A    between atoms: C8_8  and  C9_9 
REMARK    8  A    between atoms: C9_9  and  C10_10 
REMARK    9  A    between atoms: C10_10  and  C11_11 
REMARK   10  A    between atoms: C11_11  and  C12_12 
REMARK   11  A    between atoms: C12_12  and  C13_13 
REMARK   12  A    between atoms: C13_13  and  C14_14 
REMARK   13  A    between atoms: C14_14  and  C15_15 
REMARK   14  A    between atoms: C15_15  and  C16_16 
REMARK   15  A    between atoms: C16_16  and  O2_18 
REMARK   16  A    between atoms: O2_18  and  C17_19 
REMARK   17  A    between atoms: C17_19  and  C18_20 
REMARK   18  A    between atoms: C17_19  and  C33_37 
REMARK   19  A    between atoms: C18_20  and  O3_21 
REMARK   20  A    between atoms: O3_21  and  C19_22 
REMARK   21  A    between atoms: C19_22  and  C20_24 
REMARK   22  A    between atoms: C20_24  and  C21_25 
REMARK   23  A    between atoms: C21_25  and  C22_26 
REMARK   24  A    between atoms: C22_26  and  C23_27 
REMARK   25  A    between atoms: C23_27  and  C24_28 
REMARK   26  A    between atoms: C24_28  and  C25_29 
REMARK   27  A    between atoms: C25_29  and  C26_30 
REMARK   28  A    between atoms: C26_30  and  C27_31 
REMARK   29  A    between atoms: C28_32  and  C29_33 
REMARK   30  A    between atoms: C29_33  and  C30_34 
REMARK   31  A    between atoms: C30_34  and  C31_35 
REMARK   32  A    between atoms: C33_37  and  O5_38 
REMARK   33  A    between atoms: O5_38  and  P1_39 
ROOT
ATOM      1  C17 non A   1      14.133  56.549  62.790  0.00  0.00     0.180 C 
ENDROOT
BRANCH   1   2
ATOM      2  O2  non A   1      13.092  56.132  63.642  0.00  0.00    -0.312 OA
BRANCH   2   3
ATOM      3  C16 non A   1      12.219  56.999  64.296  0.00  0.00     0.259 C 
ATOM      4  O1  non A   1      12.625  57.483  65.394  0.00  0.00    -0.265 OA
BRANCH   3   5
ATOM      5  C15 non A   1      10.898  57.313  63.720  0.00  0.00     0.111 C 
BRANCH   5   6
ATOM      6  C14 non A   1       9.770  56.852  64.562  0.00  0.00     0.010 C 
BRANCH   6   7
ATOM      7  C13 non A   1       8.398  57.080  64.025  0.00  0.00     0.000 C 
BRANCH   7   8
ATOM      8  C12 non A   1       8.188  56.890  62.572  0.00  0.00     0.000 C 
BRANCH   8   9
ATOM      9  C11 non A   1       7.774  58.185  61.880  0.00  0.00     0.000 C 
BRANCH   9  10
ATOM     10  C10 non A   1       6.304  58.251  61.611  0.00  0.00     0.000 C 
BRANCH  10  11
ATOM     11  C9  non A   1       5.877  56.954  60.929  0.00  0.00     0.000 C 
BRANCH  11  12
ATOM     12  C8  non A   1       4.605  56.413  61.503  0.00  0.00     0.000 C 
BRANCH  12  13
ATOM     13  C7  non A   1       4.341  56.919  62.890  0.00  0.00     0.000 C 
BRANCH  13  14
ATOM     14  C6  non A   1       5.029  55.916  63.870  0.00  0.00     0.000 C 
BRANCH  14  15
ATOM     15  C5  non A   1       4.228  54.680  63.945  0.00  0.00     0.000 C 
BRANCH  15  16
ATOM     16  C4  non A   1       4.866  53.398  63.682  0.00  0.00     0.000 C 
BRANCH  16  17
ATOM     17  C3  non A   1       6.254  53.232  63.269  0.00  0.00    -0.000 C 
BRANCH  17  18
ATOM     18  C2  non A   1       6.650  53.415  61.851  0.00  0.00    -0.005 C 
ATOM     19  C1  non A   1       6.375  52.106  61.057  0.00  0.00     0.005 C 
ENDBRANCH  17  18
ENDBRANCH  16  17
ENDBRANCH  15  16
ENDBRANCH  14  15
ENDBRANCH  13  14
ENDBRANCH  12  13
ENDBRANCH  11  12
ENDBRANCH  10  11
ENDBRANCH   9  10
ENDBRANCH   8   9
ENDBRANCH   7   8
ENDBRANCH   6   7
ENDBRANCH   5   6
ENDBRANCH   3   5
ENDBRANCH   2   3
ENDBRANCH   1   2
BRANCH   1  20
ATOM     20  C18 non A   1      13.565  57.039  61.491  0.00  0.00     0.213 C 
BRANCH  20  21
ATOM     21  O3  non A   1      13.846  58.378  61.191  0.00  0.00    -0.319 OA
BRANCH  21  22
ATOM     22  C19 non A   1      13.154  59.463  61.670  0.00  0.00     0.258 C 
ATOM     23  O4  non A   1      13.735  60.254  62.450  0.00  0.00    -0.265 OA
BRANCH  22  24
ATOM     24  C20 non A   1      11.751  59.704  61.279  0.00  0.00     0.111 C 
BRANCH  24  25
ATOM     25  C21 non A   1      11.598  60.040  59.833  0.00  0.00     0.010 C 
BRANCH  25  26
ATOM     26  C22 non A   1      11.540  61.512  59.547  0.00  0.00     0.000 C 
BRANCH  26  27
ATOM     27  C23 non A   1      10.255  61.936  58.929  0.00  0.00     0.000 C 
BRANCH  27  28
ATOM     28  C24 non A   1       9.034  61.781  59.763  0.00  0.00     0.000 C 
BRANCH  28  29
ATOM     29  C25 non A   1       7.815  61.386  58.954  0.00  0.00     0.004 C 
BRANCH  29  30
ATOM     30  C26 non A   1       7.944  59.877  58.694  0.00  0.00     0.027 C 
BRANCH  30  31
ATOM     31  C27 non A   1       7.791  59.564  57.271  0.00  0.00    -0.031 C 
ATOM     32  C28 non A   1       7.314  58.411  56.878  0.00  0.00    -0.031 C 
BRANCH  32  33
ATOM     33  C29 non A   1       6.873  57.287  57.708  0.00  0.00     0.027 C 
BRANCH  33  34
ATOM     34  C30 non A   1       7.103  55.936  57.053  0.00  0.00     0.003 C 
BRANCH  34  35
ATOM     35  C31 non A   1       7.641  54.908  58.025  0.00  0.00    -0.004 C 
ATOM     36  C32 non A   1       9.075  54.625  57.617  0.00  0.00     0.005 C 
ENDBRANCH  34  35
ENDBRANCH  33  34
ENDBRANCH  32  33
ENDBRANCH  30  31
ENDBRANCH  29  30
ENDBRANCH  28  29
ENDBRANCH  27  28
ENDBRANCH  26  27
ENDBRANCH  25  26
ENDBRANCH  24  25
ENDBRANCH  22  24
ENDBRANCH  21  22
ENDBRANCH  20  21
ENDBRANCH   1  20
BRANCH   1  37
ATOM     37  C33 non A   1      14.970  55.285  62.559  0.00  0.00     0.217 C 
BRANCH  37  38
ATOM     38  O5  non A   1      14.173  54.243  62.103  0.00  0.00    -0.280 OA
BRANCH  38  39
ATOM     39  P1  non A   1      15.036  52.798  61.988  0.00  0.00     0.422 P 
ATOM     40  O6  non A   1      14.471  51.829  60.723  0.00  0.00    -0.617 OA
ATOM     41  O7  non A   1      14.947  52.018  63.470  0.00  0.00    -0.617 OA
ATOM     42  O8  non A   1      16.490  53.135  61.724  0.00  0.00    -0.617 OA
ENDBRANCH  38  39
ENDBRANCH  37  38
ENDBRANCH   1  37
TORSDOF 33
ENDMDL
MODEL 9
REMARK VINA RESULT:      -2.5     18.237     21.701
REMARK WARNING: 32 MAX_TORS EXCEEDED!!!
REMARK  33 active torsions:
REMARK  status: ('A' for Active; 'I' for Inactive)
REMARK    1  A    between atoms: C2_2  and  C3_3 
REMARK    2  A    between atoms: C3_3  and  C4_4 
REMARK    3  A    between atoms: C4_4  and  C5_5 
REMARK    4  A    between atoms: C5_5  and  C6_6 
REMARK    5  A    between atoms: C6_6  and  C7_7 
REMARK    6  A    between atoms: C7_7  and  C8_8 
REMARK    7  A    between atoms: C8_8  and  C9_9 
REMARK    8  A    between atoms: C9_9  and  C10_10 
REMARK    9  A    between atoms: C10_10  and  C11_11 
REMARK   10  A    between atoms: C11_11  and  C12_12 
REMARK   11  A    between atoms: C12_12  and  C13_13 
REMARK   12  A    between atoms: C13_13  and  C14_14 
REMARK   13  A    between atoms: C14_14  and  C15_15 
REMARK   14  A    between atoms: C15_15  and  C16_16 
REMARK   15  A    between atoms: C16_16  and  O2_18 
REMARK   16  A    between atoms: O2_18  and  C17_19 
REMARK   17  A    between atoms: C17_19  and  C18_20 
REMARK   18  A    between atoms: C17_19  and  C33_37 
REMARK   19  A    between atoms: C18_20  and  O3_21 
REMARK   20  A    between atoms: O3_21  and  C19_22 
REMARK   21  A    between atoms: C19_22  and  C20_24 
REMARK   22  A    between atoms: C20_24  and  C21_25 
REMARK   23  A    between atoms: C21_25  and  C22_26 
REMARK   24  A    between atoms: C22_26  and  C23_27 
REMARK   25  A    between atoms: C23_27  and  C24_28 
REMARK   26  A    between atoms: C24_28  and  C25_29 
REMARK   27  A    between atoms: C25_29  and  C26_30 
REMARK   28  A    between atoms: C26_30  and  C27_31 
REMARK   29  A    between atoms: C28_32  and  C29_33 
REMARK   30  A    between atoms: C29_33  and  C30_34 
REMARK   31  A    between atoms: C30_34  and  C31_35 
REMARK   32  A    between atoms: C33_37  and  O5_38 
REMARK   33  A    between atoms: O5_38  and  P1_39 
ROOT
ATOM      1  C17 non A   1      11.899  59.657  62.696  0.00  0.00     0.180 C 
ENDROOT
BRANCH   1   2
ATOM      2  O2  non A   1      13.066  59.060  62.180  0.00  0.00    -0.312 OA
BRANCH   2   3
ATOM      3  C16 non A   1      13.261  57.685  62.071  0.00  0.00     0.259 C 
ATOM      4  O1  non A   1      13.918  57.135  63.003  0.00  0.00    -0.265 OA
BRANCH   3   5
ATOM      5  C15 non A   1      12.724  56.939  60.918  0.00  0.00     0.111 C 
BRANCH   5   6
ATOM      6  C14 non A   1      13.615  56.972  59.735  0.00  0.00     0.010 C 
BRANCH   6   7
ATOM      7  C13 non A   1      13.067  57.609  58.503  0.00  0.00     0.000 C 
BRANCH   7   8
ATOM      8  C12 non A   1      12.500  56.720  57.465  0.00  0.00     0.000 C 
BRANCH   8   9
ATOM      9  C11 non A   1      13.158  55.343  57.468  0.00  0.00     0.000 C 
BRANCH   9  10
ATOM     10  C10 non A   1      12.193  54.242  57.163  0.00  0.00     0.000 C 
BRANCH  10  11
ATOM     11  C9  non A   1      10.905  54.498  57.939  0.00  0.00     0.000 C 
BRANCH  11  12
ATOM     12  C8  non A   1       9.700  54.458  57.052  0.00  0.00     0.000 C 
BRANCH  12  13
ATOM     13  C7  non A   1       8.882  55.712  57.138  0.00  0.00     0.000 C 
BRANCH  13  14
ATOM     14  C6  non A   1       7.387  55.266  57.220  0.00  0.00     0.000 C 
BRANCH  14  15
ATOM     15  C5  non A   1       6.553  56.422  57.596  0.00  0.00     0.000 C 
BRANCH  15  16
ATOM     16  C4  non A   1       6.293  56.688  59.004  0.00  0.00     0.000 C 
BRANCH  16  17
ATOM     17  C3  non A   1       6.922  55.980  60.111  0.00  0.00    -0.000 C 
BRANCH  17  18
ATOM     18  C2  non A   1       6.336  56.026  61.473  0.00  0.00    -0.005 C 
ATOM     19  C1  non A   1       5.739  57.438  61.738  0.00  0.00     0.005 C 
ENDBRANCH  17  18
ENDBRANCH  16  17
ENDBRANCH  15  16
ENDBRANCH  14  15
ENDBRANCH  13  14
ENDBRANCH  12  13
ENDBRANCH  11  12
ENDBRANCH  10  11
ENDBRANCH   9  10
ENDBRANCH   8   9
ENDBRANCH   7   8
ENDBRANCH   6   7
ENDBRANCH   5   6
ENDBRANCH   3   5
ENDBRANCH   2   3
ENDBRANCH   1   2
BRANCH   1  20
ATOM     20  C18 non A   1      11.357  60.652  61.712  0.00  0.00     0.213 C 
BRANCH  20  21
ATOM     21  O3  non A   1       9.976  60.872  61.796  0.00  0.00    -0.319 OA
BRANCH  21  22
ATOM     22  C19 non A   1       9.007  59.907  61.663  0.00  0.00     0.258 C 
ATOM     23  O4  non A   1       8.371  59.546  62.682  0.00  0.00    -0.265 OA
BRANCH  22  24
ATOM     24  C20 non A   1       8.709  59.303  60.350  0.00  0.00     0.111 C 
BRANCH  24  25
ATOM     25  C21 non A   1       7.891  60.189  59.472  0.00  0.00     0.010 C 
BRANCH  25  26
ATOM     26  C22 non A   1       7.937  59.825  58.016  0.00  0.00     0.000 C 
BRANCH  26  27
ATOM     27  C23 non A   1       8.932  60.618  57.247  0.00  0.00     0.000 C 
BRANCH  27  28
ATOM     28  C24 non A   1      10.185  59.917  56.861  0.00  0.00     0.000 C 
BRANCH  28  29
ATOM     29  C25 non A   1      10.096  59.259  55.499  0.00  0.00     0.004 C 
BRANCH  29  30
ATOM     30  C26 non A   1      11.511  59.317  54.902  0.00  0.00     0.027 C 
BRANCH  30  31
ATOM     31  C27 non A   1      12.089  60.658  55.027  0.00  0.00    -0.031 C 
ATOM     32  C28 non A   1      12.476  61.330  53.974  0.00  0.00    -0.031 C 
BRANCH  32  33
ATOM     33  C29 non A   1      12.418  60.918  52.569  0.00  0.00     0.027 C 
BRANCH  33  34
ATOM     34  C30 non A   1      11.090  61.236  51.907  0.00  0.00     0.003 C 
BRANCH  34  35
ATOM     35  C31 non A   1      11.262  61.910  50.563  0.00  0.00    -0.004 C 
ATOM     36  C32 non A   1      10.090  61.478  49.700  0.00  0.00     0.005 C 
ENDBRANCH  34  35
ENDBRANCH  33  34
ENDBRANCH  32  33
ENDBRANCH  30  31
ENDBRANCH  29  30
ENDBRANCH  28  29
ENDBRANCH  27  28
ENDBRANCH  26  27
ENDBRANCH  25  26
ENDBRANCH  24  25
ENDBRANCH  22  24
ENDBRANCH  21  22
ENDBRANCH  20  21
ENDBRANCH   1  20
BRANCH   1  37
ATOM     37  C33 non A   1      12.363  60.373  63.970  0.00  0.00     0.217 C 
BRANCH  37  38
ATOM     38  O5  non A   1      11.918  59.701  65.101  0.00  0.00    -0.280 OA
BRANCH  38  39
ATOM     39  P1  non A   1      10.863  60.647  66.016  0.00  0.00     0.422 P 
ATOM     40  O6  non A   1       9.757  61.474  65.041  0.00  0.00    -0.617 OA
ATOM     41  O7  non A   1      11.779  61.691  66.956  0.00  0.00    -0.617 OA
ATOM     42  O8  non A   1      10.094  59.733  66.948  0.00  0.00    -0.617 OA
ENDBRANCH  38  39
ENDBRANCH  37  38
ENDBRANCH   1  37
TORSDOF 33
ENDMDL
