MODEL 1
REMARK VINA RESULT:      -3.0      0.000      0.000
REMARK  31 active torsions:
REMARK  status: ('A' for Active; 'I' for Inactive)
REMARK    1  A    between atoms: C2_2  and  C3_3 
REMARK    2  A    between atoms: C3_3  and  C4_4 
REMARK    3  A    between atoms: C4_4  and  C5_5 
REMARK    4  A    between atoms: C5_5  and  C6_6 
REMARK    5  A    between atoms: C6_6  and  C7_7 
REMARK    6  A    between atoms: C7_7  and  C8_8 
REMARK    7  A    between atoms: C8_8  and  C9_9 
REMARK    8  A    between atoms: C9_9  and  C10_10 
REMARK    9  A    between atoms: C10_10  and  C11_11 
REMARK   10  A    between atoms: C11_11  and  C12_12 
REMARK   11  A    between atoms: C12_12  and  C13_13 
REMARK   12  A    between atoms: C13_13  and  C14_14 
REMARK   13  A    between atoms: C14_14  and  C15_15 
REMARK   14  A    between atoms: C15_15  and  C16_16 
REMARK   15  A    between atoms: C16_16  and  O2_18 
REMARK   16  A    between atoms: O2_18  and  C17_19 
REMARK   17  A    between atoms: C17_19  and  C18_20 
REMARK   18  A    between atoms: C17_19  and  C31_35 
REMARK   19  A    between atoms: C18_20  and  O3_21 
REMARK   20  A    between atoms: O3_21  and  C19_22 
REMARK   21  A    between atoms: C19_22  and  C20_24 
REMARK   22  A    between atoms: C20_24  and  C21_25 
REMARK   23  A    between atoms: C21_25  and  C22_26 
REMARK   24  A    between atoms: C23_27  and  C24_28 
REMARK   25  A    between atoms: C24_28  and  C25_29 
REMARK   26  A    between atoms: C25_29  and  C26_30 
REMARK   27  A    between atoms: C26_30  and  C27_31 
REMARK   28  A    between atoms: C27_31  and  C28_32 
REMARK   29  A    between atoms: C28_32  and  C29_33 
REMARK   30  A    between atoms: C31_35  and  O5_36 
REMARK   31  A    between atoms: O5_36  and  P1_37 
ROOT
ATOM      1  C17 non A   1      -0.875  18.088  -7.973  0.00  0.00     0.180 C 
ENDROOT
BRANCH   1   2
ATOM      2  O2  non A   1      -1.877  17.191  -7.553  0.00  0.00    -0.312 OA
BRANCH   2   3
ATOM      3  C16 non A   1      -1.975  16.755  -6.229  0.00  0.00     0.259 C 
ATOM      4  O1  non A   1      -2.822  17.320  -5.529  0.00  0.00    -0.265 OA
BRANCH   3   5
ATOM      5  C15 non A   1      -1.087  15.673  -5.752  0.00  0.00     0.111 C 
BRANCH   5   6
ATOM      6  C14 non A   1      -1.080  14.475  -6.627  0.00  0.00     0.010 C 
BRANCH   6   7
ATOM      7  C13 non A   1      -1.521  13.194  -6.011  0.00  0.00     0.000 C 
BRANCH   7   8
ATOM      8  C12 non A   1      -1.804  13.278  -4.551  0.00  0.00     0.000 C 
BRANCH   8   9
ATOM      9  C11 non A   1      -3.244  12.955  -4.176  0.00  0.00     0.000 C 
BRANCH   9  10
ATOM     10  C10 non A   1      -4.128  14.148  -4.290  0.00  0.00     0.000 C 
BRANCH  10  11
ATOM     11  C9  non A   1      -4.815  14.331  -5.570  0.00  0.00     0.000 C 
BRANCH  11  12
ATOM     12  C8  non A   1      -6.141  13.796  -5.852  0.00  0.00     0.000 C 
BRANCH  12  13
ATOM     13  C7  non A   1      -6.346  12.673  -6.789  0.00  0.00     0.000 C 
BRANCH  13  14
ATOM     14  C6  non A   1      -5.141  11.838  -7.055  0.00  0.00     0.000 C 
BRANCH  14  15
ATOM     15  C5  non A   1      -5.462  10.418  -7.419  0.00  0.00     0.000 C 
BRANCH  15  16
ATOM     16  C4  non A   1      -5.027   9.992  -8.782  0.00  0.00     0.000 C 
BRANCH  16  17
ATOM     17  C3  non A   1      -4.337  11.118  -9.499  0.00  0.00    -0.000 C 
BRANCH  17  18
ATOM     18  C2  non A   1      -3.782  10.666 -10.823  0.00  0.00    -0.005 C 
ATOM     19  C1  non A   1      -4.419   9.329 -11.185  0.00  0.00     0.005 C 
ENDBRANCH  17  18
ENDBRANCH  16  17
ENDBRANCH  15  16
ENDBRANCH  14  15
ENDBRANCH  13  14
ENDBRANCH  12  13
ENDBRANCH  11  12
ENDBRANCH  10  11
ENDBRANCH   9  10
ENDBRANCH   8   9
ENDBRANCH   7   8
ENDBRANCH   6   7
ENDBRANCH   5   6
ENDBRANCH   3   5
ENDBRANCH   2   3
ENDBRANCH   1   2
BRANCH   1  20
ATOM     20  C18 non A   1       0.461  17.412  -8.194  0.00  0.00     0.213 C 
BRANCH  20  21
ATOM     21  O3  non A   1       0.394  16.606  -9.350  0.00  0.00    -0.319 OA
BRANCH  21  22
ATOM     22  C19 non A   1       1.299  15.650  -9.691  0.00  0.00     0.258 C 
ATOM     23  O4  non A   1       2.293  15.917 -10.393  0.00  0.00    -0.265 OA
BRANCH  22  24
ATOM     24  C20 non A   1       1.156  14.203  -9.240  0.00  0.00     0.111 C 
BRANCH  24  25
ATOM     25  C21 non A   1       2.073  13.396 -10.087  0.00  0.00     0.010 C 
BRANCH  25  26
ATOM     26  C22 non A   1       2.931  12.402  -9.440  0.00  0.00     0.000 C 
ATOM     27  C23 non A   1       3.310  12.302  -8.062  0.00  0.00     0.000 C 
BRANCH  27  28
ATOM     28  C24 non A   1       3.862  13.395  -7.280  0.00  0.00     0.000 C 
BRANCH  28  29
ATOM     29  C25 non A   1       3.655  13.424  -5.800  0.00  0.00     0.000 C 
BRANCH  29  30
ATOM     30  C26 non A   1       2.786  12.241  -5.355  0.00  0.00     0.000 C 
BRANCH  30  31
ATOM     31  C27 non A   1       1.749  12.703  -4.388  0.00  0.00     0.000 C 
BRANCH  31  32
ATOM     32  C28 non A   1       1.930  14.105  -3.866  0.00  0.00    -0.000 C 
BRANCH  32  33
ATOM     33  C29 non A   1       1.228  14.264  -2.521  0.00  0.00    -0.005 C 
ATOM     34  C30 non A   1       2.152  15.063  -1.628  0.00  0.00     0.005 C 
ENDBRANCH  32  33
ENDBRANCH  31  32
ENDBRANCH  30  31
ENDBRANCH  29  30
ENDBRANCH  28  29
ENDBRANCH  27  28
ENDBRANCH  25  26
ENDBRANCH  24  25
ENDBRANCH  22  24
ENDBRANCH  21  22
ENDBRANCH  20  21
ENDBRANCH   1  20
BRANCH   1  35
ATOM     35  C31 non A   1      -0.700  19.221  -6.961  0.00  0.00     0.217 C 
BRANCH  35  36
ATOM     36  O5  non A   1       0.656  19.269  -6.636  0.00  0.00    -0.280 OA
BRANCH  36  37
ATOM     37  P1  non A   1       0.750  19.281  -4.941  0.00  0.00     0.422 P 
ATOM     38  O6  non A   1       1.767  20.545  -4.408  0.00  0.00    -0.617 OA
ATOM     39  O7  non A   1       1.331  17.804  -4.410  0.00  0.00    -0.617 OA
ATOM     40  O8  non A   1      -0.626  19.566  -4.386  0.00  0.00    -0.617 OA
ENDBRANCH  36  37
ENDBRANCH  35  36
ENDBRANCH   1  35
TORSDOF 31
ENDMDL
MODEL 2
REMARK VINA RESULT:      -2.9      5.449      8.750
REMARK  31 active torsions:
REMARK  status: ('A' for Active; 'I' for Inactive)
REMARK    1  A    between atoms: C2_2  and  C3_3 
REMARK    2  A    between atoms: C3_3  and  C4_4 
REMARK    3  A    between atoms: C4_4  and  C5_5 
REMARK    4  A    between atoms: C5_5  and  C6_6 
REMARK    5  A    between atoms: C6_6  and  C7_7 
REMARK    6  A    between atoms: C7_7  and  C8_8 
REMARK    7  A    between atoms: C8_8  and  C9_9 
REMARK    8  A    between atoms: C9_9  and  C10_10 
REMARK    9  A    between atoms: C10_10  and  C11_11 
REMARK   10  A    between atoms: C11_11  and  C12_12 
REMARK   11  A    between atoms: C12_12  and  C13_13 
REMARK   12  A    between atoms: C13_13  and  C14_14 
REMARK   13  A    between atoms: C14_14  and  C15_15 
REMARK   14  A    between atoms: C15_15  and  C16_16 
REMARK   15  A    between atoms: C16_16  and  O2_18 
REMARK   16  A    between atoms: O2_18  and  C17_19 
REMARK   17  A    between atoms: C17_19  and  C18_20 
REMARK   18  A    between atoms: C17_19  and  C31_35 
REMARK   19  A    between atoms: C18_20  and  O3_21 
REMARK   20  A    between atoms: O3_21  and  C19_22 
REMARK   21  A    between atoms: C19_22  and  C20_24 
REMARK   22  A    between atoms: C20_24  and  C21_25 
REMARK   23  A    between atoms: C21_25  and  C22_26 
REMARK   24  A    between atoms: C23_27  and  C24_28 
REMARK   25  A    between atoms: C24_28  and  C25_29 
REMARK   26  A    between atoms: C25_29  and  C26_30 
REMARK   27  A    between atoms: C26_30  and  C27_31 
REMARK   28  A    between atoms: C27_31  and  C28_32 
REMARK   29  A    between atoms: C28_32  and  C29_33 
REMARK   30  A    between atoms: C31_35  and  O5_36 
REMARK   31  A    between atoms: O5_36  and  P1_37 
ROOT
ATOM      1  C17 non A   1       5.564  12.408  -9.106  0.00  0.00     0.180 C 
ENDROOT
BRANCH   1   2
ATOM      2  O2  non A   1       5.414  13.738  -8.663  0.00  0.00    -0.312 OA
BRANCH   2   3
ATOM      3  C16 non A   1       4.239  14.188  -8.054  0.00  0.00     0.259 C 
ATOM      4  O1  non A   1       4.167  14.036  -6.830  0.00  0.00    -0.265 OA
BRANCH   3   5
ATOM      5  C15 non A   1       3.181  14.805  -8.882  0.00  0.00     0.111 C 
BRANCH   5   6
ATOM      6  C14 non A   1       2.391  15.840  -8.172  0.00  0.00     0.010 C 
BRANCH   6   7
ATOM      7  C13 non A   1       3.097  17.105  -7.832  0.00  0.00     0.000 C 
BRANCH   7   8
ATOM      8  C12 non A   1       2.408  17.940  -6.808  0.00  0.00     0.000 C 
BRANCH   8   9
ATOM      9  C11 non A   1       2.776  17.594  -5.371  0.00  0.00     0.000 C 
BRANCH   9  10
ATOM     10  C10 non A   1       1.569  17.397  -4.522  0.00  0.00     0.000 C 
BRANCH  10  11
ATOM     11  C9  non A   1       0.799  16.174  -4.756  0.00  0.00     0.000 C 
BRANCH  11  12
ATOM     12  C8  non A   1       1.393  14.844  -4.785  0.00  0.00     0.000 C 
BRANCH  12  13
ATOM     13  C7  non A   1       2.263  14.354  -3.696  0.00  0.00     0.000 C 
BRANCH  13  14
ATOM     14  C6  non A   1       1.614  14.259  -2.358  0.00  0.00     0.000 C 
BRANCH  14  15
ATOM     15  C5  non A   1       2.153  15.238  -1.358  0.00  0.00     0.000 C 
BRANCH  15  16
ATOM     16  C4  non A   1       3.435  15.902  -1.738  0.00  0.00     0.000 C 
BRANCH  16  17
ATOM     17  C3  non A   1       3.485  17.309  -1.212  0.00  0.00    -0.000 C 
BRANCH  17  18
ATOM     18  C2  non A   1       4.700  18.040  -1.715  0.00  0.00    -0.005 C 
ATOM     19  C1  non A   1       5.872  17.066  -1.750  0.00  0.00     0.005 C 
ENDBRANCH  17  18
ENDBRANCH  16  17
ENDBRANCH  15  16
ENDBRANCH  14  15
ENDBRANCH  13  14
ENDBRANCH  12  13
ENDBRANCH  11  12
ENDBRANCH  10  11
ENDBRANCH   9  10
ENDBRANCH   8   9
ENDBRANCH   7   8
ENDBRANCH   6   7
ENDBRANCH   5   6
ENDBRANCH   3   5
ENDBRANCH   2   3
ENDBRANCH   1   2
BRANCH   1  20
ATOM     20  C18 non A   1       5.882  12.314 -10.582  0.00  0.00     0.213 C 
BRANCH  20  21
ATOM     21  O3  non A   1       5.484  11.051 -11.069  0.00  0.00    -0.319 OA
BRANCH  21  22
ATOM     22  C19 non A   1       6.324  10.014 -11.333  0.00  0.00     0.258 C 
ATOM     23  O4  non A   1       7.089  10.032 -12.317  0.00  0.00    -0.265 OA
BRANCH  22  24
ATOM     24  C20 non A   1       6.383   8.775 -10.452  0.00  0.00     0.111 C 
BRANCH  24  25
ATOM     25  C21 non A   1       7.762   8.701  -9.903  0.00  0.00     0.010 C 
BRANCH  25  26
ATOM     26  C22 non A   1       7.988   7.940  -8.674  0.00  0.00     0.000 C 
ATOM     27  C23 non A   1       8.138   8.422  -7.333  0.00  0.00     0.000 C 
BRANCH  27  28
ATOM     28  C24 non A   1       9.056   9.476  -6.937  0.00  0.00     0.000 C 
BRANCH  28  29
ATOM     29  C25 non A   1       9.657   9.458  -5.568  0.00  0.00     0.000 C 
BRANCH  29  30
ATOM     30  C26 non A   1       8.557   9.455  -4.498  0.00  0.00     0.000 C 
BRANCH  30  31
ATOM     31  C27 non A   1       8.465  10.799  -3.857  0.00  0.00     0.000 C 
BRANCH  31  32
ATOM     32  C28 non A   1       8.796  10.840  -2.388  0.00  0.00    -0.000 C 
BRANCH  32  33
ATOM     33  C29 non A   1      10.305  10.938  -2.188  0.00  0.00    -0.005 C 
ATOM     34  C30 non A   1      10.588  10.572  -0.747  0.00  0.00     0.005 C 
ENDBRANCH  32  33
ENDBRANCH  31  32
ENDBRANCH  30  31
ENDBRANCH  29  30
ENDBRANCH  28  29
ENDBRANCH  27  28
ENDBRANCH  25  26
ENDBRANCH  24  25
ENDBRANCH  22  24
ENDBRANCH  21  22
ENDBRANCH  20  21
ENDBRANCH   1  20
BRANCH   1  35
ATOM     35  C31 non A   1       4.304  11.592  -8.814  0.00  0.00     0.217 C 
BRANCH  35  36
ATOM     36  O5  non A   1       4.650  10.641  -7.853  0.00  0.00    -0.280 OA
BRANCH  36  37
ATOM     37  P1  non A   1       3.264  10.377  -6.910  0.00  0.00     0.422 P 
ATOM     38  O6  non A   1       2.035  11.486  -7.330  0.00  0.00    -0.617 OA
ATOM     39  O7  non A   1       3.659  10.534  -5.291  0.00  0.00    -0.617 OA
ATOM     40  O8  non A   1       2.728   8.998  -7.218  0.00  0.00    -0.617 OA
ENDBRANCH  36  37
ENDBRANCH  35  36
ENDBRANCH   1  35
TORSDOF 31
ENDMDL
MODEL 3
REMARK VINA RESULT:      -2.6     17.646     21.229
REMARK  31 active torsions:
REMARK  status: ('A' for Active; 'I' for Inactive)
REMARK    1  A    between atoms: C2_2  and  C3_3 
REMARK    2  A    between atoms: C3_3  and  C4_4 
REMARK    3  A    between atoms: C4_4  and  C5_5 
REMARK    4  A    between atoms: C5_5  and  C6_6 
REMARK    5  A    between atoms: C6_6  and  C7_7 
REMARK    6  A    between atoms: C7_7  and  C8_8 
REMARK    7  A    between atoms: C8_8  and  C9_9 
REMARK    8  A    between atoms: C9_9  and  C10_10 
REMARK    9  A    between atoms: C10_10  and  C11_11 
REMARK   10  A    between atoms: C11_11  and  C12_12 
REMARK   11  A    between atoms: C12_12  and  C13_13 
REMARK   12  A    between atoms: C13_13  and  C14_14 
REMARK   13  A    between atoms: C14_14  and  C15_15 
REMARK   14  A    between atoms: C15_15  and  C16_16 
REMARK   15  A    between atoms: C16_16  and  O2_18 
REMARK   16  A    between atoms: O2_18  and  C17_19 
REMARK   17  A    between atoms: C17_19  and  C18_20 
REMARK   18  A    between atoms: C17_19  and  C31_35 
REMARK   19  A    between atoms: C18_20  and  O3_21 
REMARK   20  A    between atoms: O3_21  and  C19_22 
REMARK   21  A    between atoms: C19_22  and  C20_24 
REMARK   22  A    between atoms: C20_24  and  C21_25 
REMARK   23  A    between atoms: C21_25  and  C22_26 
REMARK   24  A    between atoms: C23_27  and  C24_28 
REMARK   25  A    between atoms: C24_28  and  C25_29 
REMARK   26  A    between atoms: C25_29  and  C26_30 
REMARK   27  A    between atoms: C26_30  and  C27_31 
REMARK   28  A    between atoms: C27_31  and  C28_32 
REMARK   29  A    between atoms: C28_32  and  C29_33 
REMARK   30  A    between atoms: C31_35  and  O5_36 
REMARK   31  A    between atoms: O5_36  and  P1_37 
ROOT
ATOM      1  C17 non A   1     -12.322  11.350  10.417  0.00  0.00     0.180 C 
ENDROOT
BRANCH   1   2
ATOM      2  O2  non A   1     -13.557  11.714   9.844  0.00  0.00    -0.312 OA
BRANCH   2   3
ATOM      3  C16 non A   1     -13.673  12.781   8.949  0.00  0.00     0.259 C 
ATOM      4  O1  non A   1     -14.808  13.245   8.798  0.00  0.00    -0.265 OA
BRANCH   3   5
ATOM      5  C15 non A   1     -12.468  13.282   8.255  0.00  0.00     0.111 C 
BRANCH   5   6
ATOM      6  C14 non A   1     -12.618  14.652   7.706  0.00  0.00     0.010 C 
BRANCH   6   7
ATOM      7  C13 non A   1     -11.503  15.161   6.862  0.00  0.00     0.000 C 
BRANCH   7   8
ATOM      8  C12 non A   1     -11.921  16.123   5.805  0.00  0.00     0.000 C 
BRANCH   8   9
ATOM      9  C11 non A   1     -11.130  16.007   4.508  0.00  0.00     0.000 C 
BRANCH   9  10
ATOM     10  C10 non A   1     -11.106  14.610   3.995  0.00  0.00     0.000 C 
BRANCH  10  11
ATOM     11  C9  non A   1     -12.144  14.253   3.025  0.00  0.00     0.000 C 
BRANCH  11  12
ATOM     12  C8  non A   1     -13.287  13.409   3.347  0.00  0.00     0.000 C 
BRANCH  12  13
ATOM     13  C7  non A   1     -13.487  12.847   4.697  0.00  0.00     0.000 C 
BRANCH  13  14
ATOM     14  C6  non A   1     -14.343  11.629   4.759  0.00  0.00     0.000 C 
BRANCH  14  15
ATOM     15  C5  non A   1     -13.895  10.632   5.786  0.00  0.00     0.000 C 
BRANCH  15  16
ATOM     16  C4  non A   1     -14.969  10.104   6.678  0.00  0.00     0.000 C 
BRANCH  16  17
ATOM     17  C3  non A   1     -15.361   8.710   6.277  0.00  0.00    -0.000 C 
BRANCH  17  18
ATOM     18  C2  non A   1     -14.523   7.679   6.985  0.00  0.00    -0.005 C 
ATOM     19  C1  non A   1     -14.885   6.303   6.439  0.00  0.00     0.005 C 
ENDBRANCH  17  18
ENDBRANCH  16  17
ENDBRANCH  15  16
ENDBRANCH  14  15
ENDBRANCH  13  14
ENDBRANCH  12  13
ENDBRANCH  11  12
ENDBRANCH  10  11
ENDBRANCH   9  10
ENDBRANCH   8   9
ENDBRANCH   7   8
ENDBRANCH   6   7
ENDBRANCH   5   6
ENDBRANCH   3   5
ENDBRANCH   2   3
ENDBRANCH   1   2
BRANCH   1  20
ATOM     20  C18 non A   1     -12.032   9.870  10.294  0.00  0.00     0.213 C 
BRANCH  20  21
ATOM     21  O3  non A   1     -11.263   9.448  11.399  0.00  0.00    -0.319 OA
BRANCH  21  22
ATOM     22  C19 non A   1     -10.266   8.524  11.352  0.00  0.00     0.258 C 
ATOM     23  O4  non A   1      -9.422   8.431  12.264  0.00  0.00    -0.265 OA
BRANCH  22  24
ATOM     24  C20 non A   1     -10.118   7.551  10.190  0.00  0.00     0.111 C 
BRANCH  24  25
ATOM     25  C21 non A   1     -11.055   6.428  10.447  0.00  0.00     0.010 C 
BRANCH  25  26
ATOM     26  C22 non A   1     -12.148   6.196   9.501  0.00  0.00     0.000 C 
ATOM     27  C23 non A   1     -13.256   5.293   9.612  0.00  0.00     0.000 C 
BRANCH  27  28
ATOM     28  C24 non A   1     -13.136   3.881   9.934  0.00  0.00     0.000 C 
BRANCH  28  29
ATOM     29  C25 non A   1     -13.583   3.388  11.272  0.00  0.00     0.000 C 
BRANCH  29  30
ATOM     30  C26 non A   1     -13.948   1.900  11.203  0.00  0.00     0.000 C 
BRANCH  30  31
ATOM     31  C27 non A   1     -14.512   1.574   9.861  0.00  0.00     0.000 C 
BRANCH  31  32
ATOM     32  C28 non A   1     -16.006   1.720   9.734  0.00  0.00    -0.000 C 
BRANCH  32  33
ATOM     33  C29 non A   1     -16.481   1.159   8.398  0.00  0.00    -0.005 C 
ATOM     34  C30 non A   1     -16.547  -0.346   8.544  0.00  0.00     0.005 C 
ENDBRANCH  32  33
ENDBRANCH  31  32
ENDBRANCH  30  31
ENDBRANCH  29  30
ENDBRANCH  28  29
ENDBRANCH  27  28
ENDBRANCH  25  26
ENDBRANCH  24  25
ENDBRANCH  22  24
ENDBRANCH  21  22
ENDBRANCH  20  21
ENDBRANCH   1  20
BRANCH   1  35
ATOM     35  C31 non A   1     -12.268  11.748  11.893  0.00  0.00     0.217 C 
BRANCH  35  36
ATOM     36  O5  non A   1     -12.262  13.142  11.937  0.00  0.00    -0.280 OA
BRANCH  36  37
ATOM     37  P1  non A   1     -10.639  13.616  12.081  0.00  0.00     0.422 P 
ATOM     38  O6  non A   1      -9.650  12.266  12.422  0.00  0.00    -0.617 OA
ATOM     39  O7  non A   1     -10.503  14.758  13.297  0.00  0.00    -0.617 OA
ATOM     40  O8  non A   1     -10.179  14.166  10.751  0.00  0.00    -0.617 OA
ENDBRANCH  36  37
ENDBRANCH  35  36
ENDBRANCH   1  35
TORSDOF 31
ENDMDL
MODEL 4
REMARK VINA RESULT:      -2.6     18.682     21.942
REMARK  31 active torsions:
REMARK  status: ('A' for Active; 'I' for Inactive)
REMARK    1  A    between atoms: C2_2  and  C3_3 
REMARK    2  A    between atoms: C3_3  and  C4_4 
REMARK    3  A    between atoms: C4_4  and  C5_5 
REMARK    4  A    between atoms: C5_5  and  C6_6 
REMARK    5  A    between atoms: C6_6  and  C7_7 
REMARK    6  A    between atoms: C7_7  and  C8_8 
REMARK    7  A    between atoms: C8_8  and  C9_9 
REMARK    8  A    between atoms: C9_9  and  C10_10 
REMARK    9  A    between atoms: C10_10  and  C11_11 
REMARK   10  A    between atoms: C11_11  and  C12_12 
REMARK   11  A    between atoms: C12_12  and  C13_13 
REMARK   12  A    between atoms: C13_13  and  C14_14 
REMARK   13  A    between atoms: C14_14  and  C15_15 
REMARK   14  A    between atoms: C15_15  and  C16_16 
REMARK   15  A    between atoms: C16_16  and  O2_18 
REMARK   16  A    between atoms: O2_18  and  C17_19 
REMARK   17  A    between atoms: C17_19  and  C18_20 
REMARK   18  A    between atoms: C17_19  and  C31_35 
REMARK   19  A    between atoms: C18_20  and  O3_21 
REMARK   20  A    between atoms: O3_21  and  C19_22 
REMARK   21  A    between atoms: C19_22  and  C20_24 
REMARK   22  A    between atoms: C20_24  and  C21_25 
REMARK   23  A    between atoms: C21_25  and  C22_26 
REMARK   24  A    between atoms: C23_27  and  C24_28 
REMARK   25  A    between atoms: C24_28  and  C25_29 
REMARK   26  A    between atoms: C25_29  and  C26_30 
REMARK   27  A    between atoms: C26_30  and  C27_31 
REMARK   28  A    between atoms: C27_31  and  C28_32 
REMARK   29  A    between atoms: C28_32  and  C29_33 
REMARK   30  A    between atoms: C31_35  and  O5_36 
REMARK   31  A    between atoms: O5_36  and  P1_37 
ROOT
ATOM      1  C17 non A   1      -6.897   8.783  14.085  0.00  0.00     0.180 C 
ENDROOT
BRANCH   1   2
ATOM      2  O2  non A   1      -7.411   8.056  12.992  0.00  0.00    -0.312 OA
BRANCH   2   3
ATOM      3  C16 non A   1      -8.502   7.193  13.123  0.00  0.00     0.259 C 
ATOM      4  O1  non A   1      -8.898   6.983  14.274  0.00  0.00    -0.265 OA
BRANCH   3   5
ATOM      5  C15 non A   1      -9.105   6.596  11.911  0.00  0.00     0.111 C 
BRANCH   5   6
ATOM      6  C14 non A   1     -10.423   7.174  11.551  0.00  0.00     0.010 C 
BRANCH   6   7
ATOM      7  C13 non A   1     -10.602   7.601  10.137  0.00  0.00     0.000 C 
BRANCH   7   8
ATOM      8  C12 non A   1     -11.478   6.706   9.329  0.00  0.00     0.000 C 
BRANCH   8   9
ATOM      9  C11 non A   1     -12.903   7.216   9.159  0.00  0.00     0.000 C 
BRANCH   9  10
ATOM     10  C10 non A   1     -13.642   6.458   8.113  0.00  0.00     0.000 C 
BRANCH  10  11
ATOM     11  C9  non A   1     -14.896   5.826   8.529  0.00  0.00     0.000 C 
BRANCH  11  12
ATOM     12  C8  non A   1     -15.058   4.385   8.677  0.00  0.00     0.000 C 
BRANCH  12  13
ATOM     13  C7  non A   1     -13.909   3.492   8.926  0.00  0.00     0.000 C 
BRANCH  13  14
ATOM     14  C6  non A   1     -13.729   3.068  10.343  0.00  0.00     0.000 C 
BRANCH  14  15
ATOM     15  C5  non A   1     -12.593   3.759  11.038  0.00  0.00     0.000 C 
BRANCH  15  16
ATOM     16  C4  non A   1     -12.918   4.342  12.373  0.00  0.00     0.000 C 
BRANCH  16  17
ATOM     17  C3  non A   1     -13.703   5.615  12.225  0.00  0.00    -0.000 C 
BRANCH  17  18
ATOM     18  C2  non A   1     -15.085   5.478  12.805  0.00  0.00    -0.005 C 
ATOM     19  C1  non A   1     -16.032   6.378  12.020  0.00  0.00     0.005 C 
ENDBRANCH  17  18
ENDBRANCH  16  17
ENDBRANCH  15  16
ENDBRANCH  14  15
ENDBRANCH  13  14
ENDBRANCH  12  13
ENDBRANCH  11  12
ENDBRANCH  10  11
ENDBRANCH   9  10
ENDBRANCH   8   9
ENDBRANCH   7   8
ENDBRANCH   6   7
ENDBRANCH   5   6
ENDBRANCH   3   5
ENDBRANCH   2   3
ENDBRANCH   1   2
BRANCH   1  20
ATOM     20  C18 non A   1      -6.970  10.279  13.879  0.00  0.00     0.213 C 
BRANCH  20  21
ATOM     21  O3  non A   1      -8.279  10.729  14.154  0.00  0.00    -0.319 OA
BRANCH  21  22
ATOM     22  C19 non A   1      -9.137  11.247  13.235  0.00  0.00     0.258 C 
ATOM     23  O4  non A   1      -9.591  10.552  12.306  0.00  0.00    -0.265 OA
BRANCH  22  24
ATOM     24  C20 non A   1      -9.595  12.698  13.282  0.00  0.00     0.111 C 
BRANCH  24  25
ATOM     25  C21 non A   1      -8.473  13.520  12.760  0.00  0.00     0.010 C 
BRANCH  25  26
ATOM     26  C22 non A   1      -8.586  14.978  12.815  0.00  0.00     0.000 C 
ATOM     27  C23 non A   1      -9.667  15.813  12.378  0.00  0.00     0.000 C 
BRANCH  27  28
ATOM     28  C24 non A   1     -10.280  15.740  11.063  0.00  0.00     0.000 C 
BRANCH  28  29
ATOM     29  C25 non A   1      -9.425  15.499   9.861  0.00  0.00     0.000 C 
BRANCH  29  30
ATOM     30  C26 non A   1     -10.158  15.928   8.584  0.00  0.00     0.000 C 
BRANCH  30  31
ATOM     31  C27 non A   1      -9.338  16.923   7.833  0.00  0.00     0.000 C 
BRANCH  31  32
ATOM     32  C28 non A   1     -10.040  18.208   7.481  0.00  0.00    -0.000 C 
BRANCH  32  33
ATOM     33  C29 non A   1      -9.575  18.710   6.118  0.00  0.00    -0.005 C 
ATOM     34  C30 non A   1      -8.302  17.964   5.779  0.00  0.00     0.005 C 
ENDBRANCH  32  33
ENDBRANCH  31  32
ENDBRANCH  30  31
ENDBRANCH  29  30
ENDBRANCH  28  29
ENDBRANCH  27  28
ENDBRANCH  25  26
ENDBRANCH  24  25
ENDBRANCH  22  24
ENDBRANCH  21  22
ENDBRANCH  20  21
ENDBRANCH   1  20
BRANCH   1  35
ATOM     35  C31 non A   1      -5.448   8.387  14.369  0.00  0.00     0.217 C 
BRANCH  35  36
ATOM     36  O5  non A   1      -5.063   7.504  13.360  0.00  0.00    -0.280 OA
BRANCH  36  37
ATOM     37  P1  non A   1      -3.723   8.203  12.587  0.00  0.00     0.422 P 
ATOM     38  O6  non A   1      -2.370   7.166  12.684  0.00  0.00    -0.617 OA
ATOM     39  O7  non A   1      -3.379   9.675  13.304  0.00  0.00    -0.617 OA
ATOM     40  O8  non A   1      -4.043   8.363  11.119  0.00  0.00    -0.617 OA
ENDBRANCH  36  37
ENDBRANCH  35  36
ENDBRANCH   1  35
TORSDOF 31
ENDMDL
MODEL 5
REMARK VINA RESULT:      -2.5      3.502      7.454
REMARK  31 active torsions:
REMARK  status: ('A' for Active; 'I' for Inactive)
REMARK    1  A    between atoms: C2_2  and  C3_3 
REMARK    2  A    between atoms: C3_3  and  C4_4 
REMARK    3  A    between atoms: C4_4  and  C5_5 
REMARK    4  A    between atoms: C5_5  and  C6_6 
REMARK    5  A    between atoms: C6_6  and  C7_7 
REMARK    6  A    between atoms: C7_7  and  C8_8 
REMARK    7  A    between atoms: C8_8  and  C9_9 
REMARK    8  A    between atoms: C9_9  and  C10_10 
REMARK    9  A    between atoms: C10_10  and  C11_11 
REMARK   10  A    between atoms: C11_11  and  C12_12 
REMARK   11  A    between atoms: C12_12  and  C13_13 
REMARK   12  A    between atoms: C13_13  and  C14_14 
REMARK   13  A    between atoms: C14_14  and  C15_15 
REMARK   14  A    between atoms: C15_15  and  C16_16 
REMARK   15  A    between atoms: C16_16  and  O2_18 
REMARK   16  A    between atoms: O2_18  and  C17_19 
REMARK   17  A    between atoms: C17_19  and  C18_20 
REMARK   18  A    between atoms: C17_19  and  C31_35 
REMARK   19  A    between atoms: C18_20  and  O3_21 
REMARK   20  A    between atoms: O3_21  and  C19_22 
REMARK   21  A    between atoms: C19_22  and  C20_24 
REMARK   22  A    between atoms: C20_24  and  C21_25 
REMARK   23  A    between atoms: C21_25  and  C22_26 
REMARK   24  A    between atoms: C23_27  and  C24_28 
REMARK   25  A    between atoms: C24_28  and  C25_29 
REMARK   26  A    between atoms: C25_29  and  C26_30 
REMARK   27  A    between atoms: C26_30  and  C27_31 
REMARK   28  A    between atoms: C27_31  and  C28_32 
REMARK   29  A    between atoms: C28_32  and  C29_33 
REMARK   30  A    between atoms: C31_35  and  O5_36 
REMARK   31  A    between atoms: O5_36  and  P1_37 
ROOT
ATOM      1  C17 non A   1      -0.347  14.999  -8.443  0.00  0.00     0.180 C 
ENDROOT
BRANCH   1   2
ATOM      2  O2  non A   1       1.035  15.205  -8.629  0.00  0.00    -0.312 OA
BRANCH   2   3
ATOM      3  C16 non A   1       1.632  15.135  -9.891  0.00  0.00     0.259 C 
ATOM      4  O1  non A   1       2.075  16.195 -10.345  0.00  0.00    -0.265 OA
BRANCH   3   5
ATOM      5  C15 non A   1       1.700  13.835 -10.591  0.00  0.00     0.111 C 
BRANCH   5   6
ATOM      6  C14 non A   1       1.439  13.925 -12.049  0.00  0.00     0.010 C 
BRANCH   6   7
ATOM      7  C13 non A   1       2.038  12.863 -12.903  0.00  0.00     0.000 C 
BRANCH   7   8
ATOM      8  C12 non A   1       1.261  11.592 -12.939  0.00  0.00     0.000 C 
BRANCH   8   9
ATOM      9  C11 non A   1       0.588  11.311 -14.276  0.00  0.00     0.000 C 
BRANCH   9  10
ATOM     10  C10 non A   1      -0.601  10.428 -14.124  0.00  0.00     0.000 C 
BRANCH  10  11
ATOM     11  C9  non A   1      -0.514   9.388 -13.097  0.00  0.00     0.000 C 
BRANCH  11  12
ATOM     12  C8  non A   1      -1.550   9.157 -12.099  0.00  0.00     0.000 C 
BRANCH  12  13
ATOM     13  C7  non A   1      -2.608   8.145 -12.292  0.00  0.00     0.000 C 
BRANCH  13  14
ATOM     14  C6  non A   1      -4.001   8.673 -12.285  0.00  0.00     0.000 C 
BRANCH  14  15
ATOM     15  C5  non A   1      -4.996   7.735 -11.669  0.00  0.00     0.000 C 
BRANCH  15  16
ATOM     16  C4  non A   1      -6.147   7.358 -12.542  0.00  0.00     0.000 C 
BRANCH  16  17
ATOM     17  C3  non A   1      -5.825   7.607 -13.989  0.00  0.00    -0.000 C 
BRANCH  17  18
ATOM     18  C2  non A   1      -5.434   6.335 -14.691  0.00  0.00    -0.005 C 
ATOM     19  C1  non A   1      -4.352   6.659 -15.715  0.00  0.00     0.005 C 
ENDBRANCH  17  18
ENDBRANCH  16  17
ENDBRANCH  15  16
ENDBRANCH  14  15
ENDBRANCH  13  14
ENDBRANCH  12  13
ENDBRANCH  11  12
ENDBRANCH  10  11
ENDBRANCH   9  10
ENDBRANCH   8   9
ENDBRANCH   7   8
ENDBRANCH   6   7
ENDBRANCH   5   6
ENDBRANCH   3   5
ENDBRANCH   2   3
ENDBRANCH   1   2
BRANCH   1  20
ATOM     20  C18 non A   1      -1.186  15.653  -9.518  0.00  0.00     0.213 C 
BRANCH  20  21
ATOM     21  O3  non A   1      -2.300  14.836  -9.806  0.00  0.00    -0.319 OA
BRANCH  21  22
ATOM     22  C19 non A   1      -2.352  13.490  -9.622  0.00  0.00     0.258 C 
ATOM     23  O4  non A   1      -2.889  12.992  -8.613  0.00  0.00    -0.265 OA
BRANCH  22  24
ATOM     24  C20 non A   1      -1.760  12.511 -10.626  0.00  0.00     0.111 C 
BRANCH  24  25
ATOM     25  C21 non A   1      -2.128  13.007 -11.978  0.00  0.00     0.010 C 
BRANCH  25  26
ATOM     26  C22 non A   1      -3.232  12.357 -12.686  0.00  0.00     0.000 C 
ATOM     27  C23 non A   1      -4.618  12.719 -12.715  0.00  0.00     0.000 C 
BRANCH  27  28
ATOM     28  C24 non A   1      -5.427  12.969 -11.534  0.00  0.00     0.000 C 
BRANCH  28  29
ATOM     29  C25 non A   1      -6.840  12.484 -11.489  0.00  0.00     0.000 C 
BRANCH  29  30
ATOM     30  C26 non A   1      -6.888  11.006 -11.078  0.00  0.00     0.000 C 
BRANCH  30  31
ATOM     31  C27 non A   1      -6.721  10.881  -9.601  0.00  0.00     0.000 C 
BRANCH  31  32
ATOM     32  C28 non A   1      -5.487  10.145  -9.149  0.00  0.00    -0.000 C 
BRANCH  32  33
ATOM     33  C29 non A   1      -5.738   9.466  -7.806  0.00  0.00    -0.005 C 
ATOM     34  C30 non A   1      -6.146   8.038  -8.097  0.00  0.00     0.005 C 
ENDBRANCH  32  33
ENDBRANCH  31  32
ENDBRANCH  30  31
ENDBRANCH  29  30
ENDBRANCH  28  29
ENDBRANCH  27  28
ENDBRANCH  25  26
ENDBRANCH  24  25
ENDBRANCH  22  24
ENDBRANCH  21  22
ENDBRANCH  20  21
ENDBRANCH   1  20
BRANCH   1  35
ATOM     35  C31 non A   1      -0.795  15.516  -7.075  0.00  0.00     0.217 C 
BRANCH  35  36
ATOM     36  O5  non A   1       0.103  15.009  -6.135  0.00  0.00    -0.280 OA
BRANCH  36  37
ATOM     37  P1  non A   1      -0.829  14.323  -4.894  0.00  0.00     0.422 P 
ATOM     38  O6  non A   1      -1.305  15.521  -3.773  0.00  0.00    -0.617 OA
ATOM     39  O7  non A   1       0.064  13.132  -4.127  0.00  0.00    -0.617 OA
ATOM     40  O8  non A   1      -2.096  13.763  -5.496  0.00  0.00    -0.617 OA
ENDBRANCH  36  37
ENDBRANCH  35  36
ENDBRANCH   1  35
TORSDOF 31
ENDMDL
MODEL 6
REMARK VINA RESULT:      -2.4     17.557     21.946
REMARK  31 active torsions:
REMARK  status: ('A' for Active; 'I' for Inactive)
REMARK    1  A    between atoms: C2_2  and  C3_3 
REMARK    2  A    between atoms: C3_3  and  C4_4 
REMARK    3  A    between atoms: C4_4  and  C5_5 
REMARK    4  A    between atoms: C5_5  and  C6_6 
REMARK    5  A    between atoms: C6_6  and  C7_7 
REMARK    6  A    between atoms: C7_7  and  C8_8 
REMARK    7  A    between atoms: C8_8  and  C9_9 
REMARK    8  A    between atoms: C9_9  and  C10_10 
REMARK    9  A    between atoms: C10_10  and  C11_11 
REMARK   10  A    between atoms: C11_11  and  C12_12 
REMARK   11  A    between atoms: C12_12  and  C13_13 
REMARK   12  A    between atoms: C13_13  and  C14_14 
REMARK   13  A    between atoms: C14_14  and  C15_15 
REMARK   14  A    between atoms: C15_15  and  C16_16 
REMARK   15  A    between atoms: C16_16  and  O2_18 
REMARK   16  A    between atoms: O2_18  and  C17_19 
REMARK   17  A    between atoms: C17_19  and  C18_20 
REMARK   18  A    between atoms: C17_19  and  C31_35 
REMARK   19  A    between atoms: C18_20  and  O3_21 
REMARK   20  A    between atoms: O3_21  and  C19_22 
REMARK   21  A    between atoms: C19_22  and  C20_24 
REMARK   22  A    between atoms: C20_24  and  C21_25 
REMARK   23  A    between atoms: C21_25  and  C22_26 
REMARK   24  A    between atoms: C23_27  and  C24_28 
REMARK   25  A    between atoms: C24_28  and  C25_29 
REMARK   26  A    between atoms: C25_29  and  C26_30 
REMARK   27  A    between atoms: C26_30  and  C27_31 
REMARK   28  A    between atoms: C27_31  and  C28_32 
REMARK   29  A    between atoms: C28_32  and  C29_33 
REMARK   30  A    between atoms: C31_35  and  O5_36 
REMARK   31  A    between atoms: O5_36  and  P1_37 
ROOT
ATOM      1  C17 non A   1      -5.772  15.061  14.544  0.00  0.00     0.180 C 
ENDROOT
BRANCH   1   2
ATOM      2  O2  non A   1      -4.494  14.473  14.642  0.00  0.00    -0.312 OA
BRANCH   2   3
ATOM      3  C16 non A   1      -3.901  13.807  13.567  0.00  0.00     0.259 C 
ATOM      4  O1  non A   1      -4.189  14.222  12.440  0.00  0.00    -0.265 OA
BRANCH   3   5
ATOM      5  C15 non A   1      -2.986  12.674  13.829  0.00  0.00     0.111 C 
BRANCH   5   6
ATOM      6  C14 non A   1      -1.856  12.582  12.872  0.00  0.00     0.010 C 
BRANCH   6   7
ATOM      7  C13 non A   1      -1.684  11.285  12.164  0.00  0.00     0.000 C 
BRANCH   7   8
ATOM      8  C12 non A   1      -2.888  10.407  12.184  0.00  0.00     0.000 C 
BRANCH   8   9
ATOM      9  C11 non A   1      -2.574   8.917  12.131  0.00  0.00     0.000 C 
BRANCH   9  10
ATOM     10  C10 non A   1      -1.474   8.548  13.063  0.00  0.00     0.000 C 
BRANCH  10  11
ATOM     11  C9  non A   1      -1.838   7.696  14.197  0.00  0.00     0.000 C 
BRANCH  11  12
ATOM     12  C8  non A   1      -2.552   8.184  15.370  0.00  0.00     0.000 C 
BRANCH  12  13
ATOM     13  C7  non A   1      -2.316   9.533  15.923  0.00  0.00     0.000 C 
BRANCH  13  14
ATOM     14  C6  non A   1      -1.313   9.602  17.023  0.00  0.00     0.000 C 
BRANCH  14  15
ATOM     15  C5  non A   1      -0.257  10.645  16.808  0.00  0.00     0.000 C 
BRANCH  15  16
ATOM     16  C4  non A   1       0.199  10.814  15.397  0.00  0.00     0.000 C 
BRANCH  16  17
ATOM     17  C3  non A   1       0.812  12.170  15.191  0.00  0.00    -0.000 C 
BRANCH  17  18
ATOM     18  C2  non A   1       2.144  12.071  14.496  0.00  0.00    -0.005 C 
ATOM     19  C1  non A   1       3.168  11.527  15.485  0.00  0.00     0.005 C 
ENDBRANCH  17  18
ENDBRANCH  16  17
ENDBRANCH  15  16
ENDBRANCH  14  15
ENDBRANCH  13  14
ENDBRANCH  12  13
ENDBRANCH  11  12
ENDBRANCH  10  11
ENDBRANCH   9  10
ENDBRANCH   8   9
ENDBRANCH   7   8
ENDBRANCH   6   7
ENDBRANCH   5   6
ENDBRANCH   3   5
ENDBRANCH   2   3
ENDBRANCH   1   2
BRANCH   1  20
ATOM     20  C18 non A   1      -5.840  16.426  15.192  0.00  0.00     0.213 C 
BRANCH  20  21
ATOM     21  O3  non A   1      -7.190  16.803  15.354  0.00  0.00    -0.319 OA
BRANCH  21  22
ATOM     22  C19 non A   1      -7.906  17.548  14.469  0.00  0.00     0.258 C 
ATOM     23  O4  non A   1      -9.066  17.922  14.725  0.00  0.00    -0.265 OA
BRANCH  22  24
ATOM     24  C20 non A   1      -7.340  17.968  13.120  0.00  0.00     0.111 C 
BRANCH  24  25
ATOM     25  C21 non A   1      -7.909  19.306  12.813  0.00  0.00     0.010 C 
BRANCH  25  26
ATOM     26  C22 non A   1      -8.719  19.463  11.604  0.00  0.00     0.000 C 
ATOM     27  C23 non A   1      -8.410  19.076  10.259  0.00  0.00     0.000 C 
BRANCH  27  28
ATOM     28  C24 non A   1      -7.179  19.420   9.568  0.00  0.00     0.000 C 
BRANCH  28  29
ATOM     29  C25 non A   1      -7.177  19.543   8.078  0.00  0.00     0.000 C 
BRANCH  29  30
ATOM     30  C26 non A   1      -7.972  18.395   7.442  0.00  0.00     0.000 C 
BRANCH  30  31
ATOM     31  C27 non A   1      -7.522  18.179   6.037  0.00  0.00     0.000 C 
BRANCH  31  32
ATOM     32  C28 non A   1      -8.623  18.044   5.018  0.00  0.00    -0.000 C 
BRANCH  32  33
ATOM     33  C29 non A   1      -9.925  17.628   5.695  0.00  0.00    -0.005 C 
ATOM     34  C30 non A   1     -10.599  16.623   4.787  0.00  0.00     0.005 C 
ENDBRANCH  32  33
ENDBRANCH  31  32
ENDBRANCH  30  31
ENDBRANCH  29  30
ENDBRANCH  28  29
ENDBRANCH  27  28
ENDBRANCH  25  26
ENDBRANCH  24  25
ENDBRANCH  22  24
ENDBRANCH  21  22
ENDBRANCH  20  21
ENDBRANCH   1  20
BRANCH   1  35
ATOM     35  C31 non A   1      -6.836  14.157  15.170  0.00  0.00     0.217 C 
BRANCH  35  36
ATOM     36  O5  non A   1      -7.594  13.638  14.120  0.00  0.00    -0.280 OA
BRANCH  36  37
ATOM     37  P1  non A   1      -7.540  11.948  14.272  0.00  0.00     0.422 P 
ATOM     38  O6  non A   1      -6.109  11.465  15.069  0.00  0.00    -0.617 OA
ATOM     39  O7  non A   1      -7.621  11.254  12.751  0.00  0.00    -0.617 OA
ATOM     40  O8  non A   1      -8.692  11.506  15.144  0.00  0.00    -0.617 OA
ENDBRANCH  36  37
ENDBRANCH  35  36
ENDBRANCH   1  35
TORSDOF 31
ENDMDL
MODEL 7
REMARK VINA RESULT:      -2.4     17.816     21.331
REMARK  31 active torsions:
REMARK  status: ('A' for Active; 'I' for Inactive)
REMARK    1  A    between atoms: C2_2  and  C3_3 
REMARK    2  A    between atoms: C3_3  and  C4_4 
REMARK    3  A    between atoms: C4_4  and  C5_5 
REMARK    4  A    between atoms: C5_5  and  C6_6 
REMARK    5  A    between atoms: C6_6  and  C7_7 
REMARK    6  A    between atoms: C7_7  and  C8_8 
REMARK    7  A    between atoms: C8_8  and  C9_9 
REMARK    8  A    between atoms: C9_9  and  C10_10 
REMARK    9  A    between atoms: C10_10  and  C11_11 
REMARK   10  A    between atoms: C11_11  and  C12_12 
REMARK   11  A    between atoms: C12_12  and  C13_13 
REMARK   12  A    between atoms: C13_13  and  C14_14 
REMARK   13  A    between atoms: C14_14  and  C15_15 
REMARK   14  A    between atoms: C15_15  and  C16_16 
REMARK   15  A    between atoms: C16_16  and  O2_18 
REMARK   16  A    between atoms: O2_18  and  C17_19 
REMARK   17  A    between atoms: C17_19  and  C18_20 
REMARK   18  A    between atoms: C17_19  and  C31_35 
REMARK   19  A    between atoms: C18_20  and  O3_21 
REMARK   20  A    between atoms: O3_21  and  C19_22 
REMARK   21  A    between atoms: C19_22  and  C20_24 
REMARK   22  A    between atoms: C20_24  and  C21_25 
REMARK   23  A    between atoms: C21_25  and  C22_26 
REMARK   24  A    between atoms: C23_27  and  C24_28 
REMARK   25  A    between atoms: C24_28  and  C25_29 
REMARK   26  A    between atoms: C25_29  and  C26_30 
REMARK   27  A    between atoms: C26_30  and  C27_31 
REMARK   28  A    between atoms: C27_31  and  C28_32 
REMARK   29  A    between atoms: C28_32  and  C29_33 
REMARK   30  A    between atoms: C31_35  and  O5_36 
REMARK   31  A    between atoms: O5_36  and  P1_37 
ROOT
ATOM      1  C17 non A   1     -12.524  10.949  10.423  0.00  0.00     0.180 C 
ENDROOT
BRANCH   1   2
ATOM      2  O2  non A   1     -13.651  11.679   9.996  0.00  0.00    -0.312 OA
BRANCH   2   3
ATOM      3  C16 non A   1     -13.535  12.839   9.225  0.00  0.00     0.259 C 
ATOM      4  O1  non A   1     -14.391  13.709   9.415  0.00  0.00    -0.265 OA
BRANCH   3   5
ATOM      5  C15 non A   1     -12.427  12.957   8.253  0.00  0.00     0.111 C 
BRANCH   5   6
ATOM      6  C14 non A   1     -12.226  14.334   7.738  0.00  0.00     0.010 C 
BRANCH   6   7
ATOM      7  C13 non A   1     -11.267  14.494   6.612  0.00  0.00     0.000 C 
BRANCH   7   8
ATOM      8  C12 non A   1     -11.428  15.757   5.839  0.00  0.00     0.000 C 
BRANCH   8   9
ATOM      9  C11 non A   1     -11.103  15.628   4.357  0.00  0.00     0.000 C 
BRANCH   9  10
ATOM     10  C10 non A   1     -11.592  14.340   3.792  0.00  0.00     0.000 C 
BRANCH  10  11
ATOM     11  C9  non A   1     -12.810  14.405   2.981  0.00  0.00     0.000 C 
BRANCH  11  12
ATOM     12  C8  non A   1     -14.129  14.047   3.485  0.00  0.00     0.000 C 
BRANCH  12  13
ATOM     13  C7  non A   1     -14.351  13.675   4.896  0.00  0.00     0.000 C 
BRANCH  13  14
ATOM     14  C6  non A   1     -15.337  12.579   5.117  0.00  0.00     0.000 C 
BRANCH  14  15
ATOM     15  C5  non A   1     -14.804  11.450   5.947  0.00  0.00     0.000 C 
BRANCH  15  16
ATOM     16  C4  non A   1     -15.820  10.715   6.758  0.00  0.00     0.000 C 
BRANCH  16  17
ATOM     17  C3  non A   1     -16.117   9.372   6.153  0.00  0.00    -0.000 C 
BRANCH  17  18
ATOM     18  C2  non A   1     -15.004   8.393   6.415  0.00  0.00    -0.005 C 
ATOM     19  C1  non A   1     -15.297   7.109   5.648  0.00  0.00     0.005 C 
ENDBRANCH  17  18
ENDBRANCH  16  17
ENDBRANCH  15  16
ENDBRANCH  14  15
ENDBRANCH  13  14
ENDBRANCH  12  13
ENDBRANCH  11  12
ENDBRANCH  10  11
ENDBRANCH   9  10
ENDBRANCH   8   9
ENDBRANCH   7   8
ENDBRANCH   6   7
ENDBRANCH   5   6
ENDBRANCH   3   5
ENDBRANCH   2   3
ENDBRANCH   1   2
BRANCH   1  20
ATOM     20  C18 non A   1     -12.601   9.484  10.054  0.00  0.00     0.213 C 
BRANCH  20  21
ATOM     21  O3  non A   1     -12.054   8.707  11.097  0.00  0.00    -0.319 OA
BRANCH  21  22
ATOM     22  C19 non A   1     -11.367   7.545  10.931  0.00  0.00     0.258 C 
ATOM     23  O4  non A   1     -10.655   7.075  11.839  0.00  0.00    -0.265 OA
BRANCH  22  24
ATOM     24  C20 non A   1     -11.422   6.751   9.633  0.00  0.00     0.111 C 
BRANCH  24  25
ATOM     25  C21 non A   1     -12.534   5.776   9.773  0.00  0.00     0.010 C 
BRANCH  25  26
ATOM     26  C22 non A   1     -13.639   5.830   8.814  0.00  0.00     0.000 C 
ATOM     27  C23 non A   1     -14.942   5.241   8.910  0.00  0.00     0.000 C 
BRANCH  27  28
ATOM     28  C24 non A   1     -15.191   3.846   9.230  0.00  0.00     0.000 C 
BRANCH  28  29
ATOM     29  C25 non A   1     -14.320   2.785   8.639  0.00  0.00     0.000 C 
BRANCH  29  30
ATOM     30  C26 non A   1     -14.293   1.546   9.543  0.00  0.00     0.000 C 
BRANCH  30  31
ATOM     31  C27 non A   1     -14.287   1.959  10.976  0.00  0.00     0.000 C 
BRANCH  31  32
ATOM     32  C28 non A   1     -12.978   2.501  11.488  0.00  0.00    -0.000 C 
BRANCH  32  33
ATOM     33  C29 non A   1     -13.080   2.811  12.978  0.00  0.00    -0.005 C 
ATOM     34  C30 non A   1     -12.453   4.171  13.194  0.00  0.00     0.005 C 
ENDBRANCH  32  33
ENDBRANCH  31  32
ENDBRANCH  30  31
ENDBRANCH  29  30
ENDBRANCH  28  29
ENDBRANCH  27  28
ENDBRANCH  25  26
ENDBRANCH  24  25
ENDBRANCH  22  24
ENDBRANCH  21  22
ENDBRANCH  20  21
ENDBRANCH   1  20
BRANCH   1  35
ATOM     35  C31 non A   1     -12.336  11.073  11.936  0.00  0.00     0.217 C 
BRANCH  35  36
ATOM     36  O5  non A   1     -12.543  12.414  12.261  0.00  0.00    -0.280 OA
BRANCH  36  37
ATOM     37  P1  non A   1     -11.007  13.117  12.425  0.00  0.00     0.422 P 
ATOM     38  O6  non A   1      -9.801  11.909  12.491  0.00  0.00    -0.617 OA
ATOM     39  O7  non A   1     -10.972  14.049  13.815  0.00  0.00    -0.617 OA
ATOM     40  O8  non A   1     -10.723  13.946  11.195  0.00  0.00    -0.617 OA
ENDBRANCH  36  37
ENDBRANCH  35  36
ENDBRANCH   1  35
TORSDOF 31
ENDMDL
MODEL 8
REMARK VINA RESULT:      -2.4     28.564     32.604
REMARK  31 active torsions:
REMARK  status: ('A' for Active; 'I' for Inactive)
REMARK    1  A    between atoms: C2_2  and  C3_3 
REMARK    2  A    between atoms: C3_3  and  C4_4 
REMARK    3  A    between atoms: C4_4  and  C5_5 
REMARK    4  A    between atoms: C5_5  and  C6_6 
REMARK    5  A    between atoms: C6_6  and  C7_7 
REMARK    6  A    between atoms: C7_7  and  C8_8 
REMARK    7  A    between atoms: C8_8  and  C9_9 
REMARK    8  A    between atoms: C9_9  and  C10_10 
REMARK    9  A    between atoms: C10_10  and  C11_11 
REMARK   10  A    between atoms: C11_11  and  C12_12 
REMARK   11  A    between atoms: C12_12  and  C13_13 
REMARK   12  A    between atoms: C13_13  and  C14_14 
REMARK   13  A    between atoms: C14_14  and  C15_15 
REMARK   14  A    between atoms: C15_15  and  C16_16 
REMARK   15  A    between atoms: C16_16  and  O2_18 
REMARK   16  A    between atoms: O2_18  and  C17_19 
REMARK   17  A    between atoms: C17_19  and  C18_20 
REMARK   18  A    between atoms: C17_19  and  C31_35 
REMARK   19  A    between atoms: C18_20  and  O3_21 
REMARK   20  A    between atoms: O3_21  and  C19_22 
REMARK   21  A    between atoms: C19_22  and  C20_24 
REMARK   22  A    between atoms: C20_24  and  C21_25 
REMARK   23  A    between atoms: C21_25  and  C22_26 
REMARK   24  A    between atoms: C23_27  and  C24_28 
REMARK   25  A    between atoms: C24_28  and  C25_29 
REMARK   26  A    between atoms: C25_29  and  C26_30 
REMARK   27  A    between atoms: C26_30  and  C27_31 
REMARK   28  A    between atoms: C27_31  and  C28_32 
REMARK   29  A    between atoms: C28_32  and  C29_33 
REMARK   30  A    between atoms: C31_35  and  O5_36 
REMARK   31  A    between atoms: O5_36  and  P1_37 
ROOT
ATOM      1  C17 non A   1     -14.223 -13.529  -0.734  0.00  0.00     0.180 C 
ENDROOT
BRANCH   1   2
ATOM      2  O2  non A   1     -14.345 -12.964   0.551  0.00  0.00    -0.312 OA
BRANCH   2   3
ATOM      3  C16 non A   1     -13.367 -12.121   1.087  0.00  0.00     0.259 C 
ATOM      4  O1  non A   1     -12.995 -11.189   0.367  0.00  0.00    -0.265 OA
BRANCH   3   5
ATOM      5  C15 non A   1     -12.847 -12.384   2.446  0.00  0.00     0.111 C 
BRANCH   5   6
ATOM      6  C14 non A   1     -12.309 -11.180   3.125  0.00  0.00     0.010 C 
BRANCH   6   7
ATOM      7  C13 non A   1     -13.295 -10.137   3.519  0.00  0.00     0.000 C 
BRANCH   7   8
ATOM      8  C12 non A   1     -14.295 -10.585   4.528  0.00  0.00     0.000 C 
BRANCH   8   9
ATOM      9  C11 non A   1     -15.697 -10.788   3.969  0.00  0.00     0.000 C 
BRANCH   9  10
ATOM     10  C10 non A   1     -16.722 -10.053   4.759  0.00  0.00     0.000 C 
BRANCH  10  11
ATOM     11  C9  non A   1     -16.866 -10.443   6.163  0.00  0.00     0.000 C 
BRANCH  11  12
ATOM     12  C8  non A   1     -15.735 -10.675   7.052  0.00  0.00     0.000 C 
BRANCH  12  13
ATOM     13  C7  non A   1     -15.775 -11.698   8.117  0.00  0.00     0.000 C 
BRANCH  13  14
ATOM     14  C6  non A   1     -14.469 -12.341   8.430  0.00  0.00     0.000 C 
BRANCH  14  15
ATOM     15  C5  non A   1     -14.470 -13.829   8.236  0.00  0.00     0.000 C 
BRANCH  15  16
ATOM     16  C4  non A   1     -15.676 -14.541   8.753  0.00  0.00     0.000 C 
BRANCH  16  17
ATOM     17  C3  non A   1     -15.527 -14.854  10.215  0.00  0.00    -0.000 C 
BRANCH  17  18
ATOM     18  C2  non A   1     -16.593 -14.174  11.032  0.00  0.00    -0.005 C 
ATOM     19  C1  non A   1     -17.475 -15.245  11.664  0.00  0.00     0.005 C 
ENDBRANCH  17  18
ENDBRANCH  16  17
ENDBRANCH  15  16
ENDBRANCH  14  15
ENDBRANCH  13  14
ENDBRANCH  12  13
ENDBRANCH  11  12
ENDBRANCH  10  11
ENDBRANCH   9  10
ENDBRANCH   8   9
ENDBRANCH   7   8
ENDBRANCH   6   7
ENDBRANCH   5   6
ENDBRANCH   3   5
ENDBRANCH   2   3
ENDBRANCH   1   2
BRANCH   1  20
ATOM     20  C18 non A   1     -14.942 -12.728  -1.797  0.00  0.00     0.213 C 
BRANCH  20  21
ATOM     21  O3  non A   1     -16.250 -12.431  -1.357  0.00  0.00    -0.319 OA
BRANCH  21  22
ATOM     22  C19 non A   1     -17.349 -12.365  -2.155  0.00  0.00     0.258 C 
ATOM     23  O4  non A   1     -18.496 -12.289  -1.676  0.00  0.00    -0.265 OA
BRANCH  22  24
ATOM     24  C20 non A   1     -17.248 -12.381  -3.674  0.00  0.00     0.111 C 
BRANCH  24  25
ATOM     25  C21 non A   1     -17.546 -11.002  -4.140  0.00  0.00     0.010 C 
BRANCH  25  26
ATOM     26  C22 non A   1     -16.856 -10.499  -5.328  0.00  0.00     0.000 C 
ATOM     27  C23 non A   1     -16.583  -9.143  -5.702  0.00  0.00     0.000 C 
BRANCH  27  28
ATOM     28  C24 non A   1     -17.578  -8.085  -5.741  0.00  0.00     0.000 C 
BRANCH  28  29
ATOM     29  C25 non A   1     -17.537  -6.994  -4.720  0.00  0.00     0.000 C 
BRANCH  29  30
ATOM     30  C26 non A   1     -18.623  -7.209  -3.658  0.00  0.00     0.000 C 
BRANCH  30  31
ATOM     31  C27 non A   1     -17.998  -7.375  -2.314  0.00  0.00     0.000 C 
BRANCH  31  32
ATOM     32  C28 non A   1     -18.592  -6.532  -1.216  0.00  0.00    -0.000 C 
BRANCH  32  33
ATOM     33  C29 non A   1     -17.612  -5.440  -0.797  0.00  0.00    -0.005 C 
ATOM     34  C30 non A   1     -17.948  -4.206  -1.605  0.00  0.00     0.005 C 
ENDBRANCH  32  33
ENDBRANCH  31  32
ENDBRANCH  30  31
ENDBRANCH  29  30
ENDBRANCH  28  29
ENDBRANCH  27  28
ENDBRANCH  25  26
ENDBRANCH  24  25
ENDBRANCH  22  24
ENDBRANCH  21  22
ENDBRANCH  20  21
ENDBRANCH   1  20
BRANCH   1  35
ATOM     35  C31 non A   1     -14.749 -14.965  -0.750  0.00  0.00     0.217 C 
BRANCH  35  36
ATOM     36  O5  non A   1     -15.081 -15.289   0.566  0.00  0.00    -0.280 OA
BRANCH  36  37
ATOM     37  P1  non A   1     -16.619 -16.006   0.516  0.00  0.00     0.422 P 
ATOM     38  O6  non A   1     -16.754 -17.037  -0.839  0.00  0.00    -0.617 OA
ATOM     39  O7  non A   1     -17.785 -14.807   0.452  0.00  0.00    -0.617 OA
ATOM     40  O8  non A   1     -16.785 -16.875   1.740  0.00  0.00    -0.617 OA
ENDBRANCH  36  37
ENDBRANCH  35  36
ENDBRANCH   1  35
TORSDOF 31
ENDMDL
MODEL 9
REMARK VINA RESULT:      -2.4     18.929     21.967
REMARK  31 active torsions:
REMARK  status: ('A' for Active; 'I' for Inactive)
REMARK    1  A    between atoms: C2_2  and  C3_3 
REMARK    2  A    between atoms: C3_3  and  C4_4 
REMARK    3  A    between atoms: C4_4  and  C5_5 
REMARK    4  A    between atoms: C5_5  and  C6_6 
REMARK    5  A    between atoms: C6_6  and  C7_7 
REMARK    6  A    between atoms: C7_7  and  C8_8 
REMARK    7  A    between atoms: C8_8  and  C9_9 
REMARK    8  A    between atoms: C9_9  and  C10_10 
REMARK    9  A    between atoms: C10_10  and  C11_11 
REMARK   10  A    between atoms: C11_11  and  C12_12 
REMARK   11  A    between atoms: C12_12  and  C13_13 
REMARK   12  A    between atoms: C13_13  and  C14_14 
REMARK   13  A    between atoms: C14_14  and  C15_15 
REMARK   14  A    between atoms: C15_15  and  C16_16 
REMARK   15  A    between atoms: C16_16  and  O2_18 
REMARK   16  A    between atoms: O2_18  and  C17_19 
REMARK   17  A    between atoms: C17_19  and  C18_20 
REMARK   18  A    between atoms: C17_19  and  C31_35 
REMARK   19  A    between atoms: C18_20  and  O3_21 
REMARK   20  A    between atoms: O3_21  and  C19_22 
REMARK   21  A    between atoms: C19_22  and  C20_24 
REMARK   22  A    between atoms: C20_24  and  C21_25 
REMARK   23  A    between atoms: C21_25  and  C22_26 
REMARK   24  A    between atoms: C23_27  and  C24_28 
REMARK   25  A    between atoms: C24_28  and  C25_29 
REMARK   26  A    between atoms: C25_29  and  C26_30 
REMARK   27  A    between atoms: C26_30  and  C27_31 
REMARK   28  A    between atoms: C27_31  and  C28_32 
REMARK   29  A    between atoms: C28_32  and  C29_33 
REMARK   30  A    between atoms: C31_35  and  O5_36 
REMARK   31  A    between atoms: O5_36  and  P1_37 
ROOT
ATOM      1  C17 non A   1      -0.369  13.524  16.295  0.00  0.00     0.180 C 
ENDROOT
BRANCH   1   2
ATOM      2  O2  non A   1      -0.463  13.930  14.949  0.00  0.00    -0.312 OA
BRANCH   2   3
ATOM      3  C16 non A   1       0.201  13.253  13.922  0.00  0.00     0.259 C 
ATOM      4  O1  non A   1       1.417  13.097  14.067  0.00  0.00    -0.265 OA
BRANCH   3   5
ATOM      5  C15 non A   1      -0.568  12.773  12.753  0.00  0.00     0.111 C 
BRANCH   5   6
ATOM      6  C14 non A   1      -1.733  11.926  13.108  0.00  0.00     0.010 C 
BRANCH   6   7
ATOM      7  C13 non A   1      -2.113  10.868  12.133  0.00  0.00     0.000 C 
BRANCH   7   8
ATOM      8  C12 non A   1      -1.986   9.478  12.652  0.00  0.00     0.000 C 
BRANCH   8   9
ATOM      9  C11 non A   1      -2.899   8.470  11.966  0.00  0.00     0.000 C 
BRANCH   9  10
ATOM     10  C10 non A   1      -3.728   7.715  12.945  0.00  0.00     0.000 C 
BRANCH  10  11
ATOM     11  C9  non A   1      -5.113   8.162  13.109  0.00  0.00     0.000 C 
BRANCH  11  12
ATOM     12  C8  non A   1      -5.747   9.143  12.239  0.00  0.00     0.000 C 
BRANCH  12  13
ATOM     13  C7  non A   1      -6.964   9.876  12.645  0.00  0.00     0.000 C 
BRANCH  13  14
ATOM     14  C6  non A   1      -8.229   9.091  12.583  0.00  0.00     0.000 C 
BRANCH  14  15
ATOM     15  C5  non A   1      -8.427   8.372  11.281  0.00  0.00     0.000 C 
BRANCH  15  16
ATOM     16  C4  non A   1      -9.209   7.103  11.363  0.00  0.00     0.000 C 
BRANCH  16  17
ATOM     17  C3  non A   1      -9.346   6.650  12.789  0.00  0.00    -0.000 C 
BRANCH  17  18
ATOM     18  C2  non A   1     -10.687   6.014  13.036  0.00  0.00    -0.005 C 
ATOM     19  C1  non A   1     -10.556   5.044  14.205  0.00  0.00     0.005 C 
ENDBRANCH  17  18
ENDBRANCH  16  17
ENDBRANCH  15  16
ENDBRANCH  14  15
ENDBRANCH  13  14
ENDBRANCH  12  13
ENDBRANCH  11  12
ENDBRANCH  10  11
ENDBRANCH   9  10
ENDBRANCH   8   9
ENDBRANCH   7   8
ENDBRANCH   6   7
ENDBRANCH   5   6
ENDBRANCH   3   5
ENDBRANCH   2   3
ENDBRANCH   1   2
BRANCH   1  20
ATOM     20  C18 non A   1       0.984  13.820  16.903  0.00  0.00     0.213 C 
BRANCH  20  21
ATOM     21  O3  non A   1       0.914  15.018  17.645  0.00  0.00    -0.319 OA
BRANCH  21  22
ATOM     22  C19 non A   1       1.393  16.223  17.234  0.00  0.00     0.258 C 
ATOM     23  O4  non A   1       1.586  17.154  18.039  0.00  0.00    -0.265 OA
BRANCH  22  24
ATOM     24  C20 non A   1       1.721  16.509  15.776  0.00  0.00     0.111 C 
BRANCH  24  25
ATOM     25  C21 non A   1       2.859  17.465  15.770  0.00  0.00     0.010 C 
BRANCH  25  26
ATOM     26  C22 non A   1       2.656  18.793  15.189  0.00  0.00     0.000 C 
ATOM     27  C23 non A   1       2.832  19.216  13.831  0.00  0.00     0.000 C 
BRANCH  27  28
ATOM     28  C24 non A   1       4.029  18.972  13.043  0.00  0.00     0.000 C 
BRANCH  28  29
ATOM     29  C25 non A   1       3.955  18.089  11.840  0.00  0.00     0.000 C 
BRANCH  29  30
ATOM     30  C26 non A   1       4.436  16.673  12.181  0.00  0.00     0.000 C 
BRANCH  30  31
ATOM     31  C27 non A   1       3.270  15.747  12.278  0.00  0.00     0.000 C 
BRANCH  31  32
ATOM     32  C28 non A   1       1.950  16.318  11.832  0.00  0.00    -0.000 C 
BRANCH  32  33
ATOM     33  C29 non A   1       1.556  15.745  10.474  0.00  0.00    -0.005 C 
ATOM     34  C30 non A   1       0.081  15.412  10.542  0.00  0.00     0.005 C 
ENDBRANCH  32  33
ENDBRANCH  31  32
ENDBRANCH  30  31
ENDBRANCH  29  30
ENDBRANCH  28  29
ENDBRANCH  27  28
ENDBRANCH  25  26
ENDBRANCH  24  25
ENDBRANCH  22  24
ENDBRANCH  21  22
ENDBRANCH  20  21
ENDBRANCH   1  20
BRANCH   1  35
ATOM     35  C31 non A   1      -0.663  12.030  16.434  0.00  0.00     0.217 C 
BRANCH  35  36
ATOM     36  O5  non A   1      -1.211  11.841  17.703  0.00  0.00    -0.280 OA
BRANCH  36  37
ATOM     37  P1  non A   1      -0.449  10.475  18.363  0.00  0.00     0.422 P 
ATOM     38  O6  non A   1      -1.608   9.307  18.821  0.00  0.00    -0.617 OA
ATOM     39  O7  non A   1       0.463  10.939  19.688  0.00  0.00    -0.617 OA
ATOM     40  O8  non A   1       0.409   9.840  17.295  0.00  0.00    -0.617 OA
ENDBRANCH  36  37
ENDBRANCH  35  36
ENDBRANCH   1  35
TORSDOF 31
ENDMDL
