MODEL 1
REMARK VINA RESULT:      -2.7      0.000      0.000
REMARK WARNING: 32 MAX_TORS EXCEEDED!!!
REMARK  35 active torsions:
REMARK  status: ('A' for Active; 'I' for Inactive)
REMARK    1  A    between atoms: C1_1  and  C2_2 
REMARK    2  A    between atoms: C1_1  and  C19_21 
REMARK    3  A    between atoms: C1_1  and  O7_27 
REMARK    4  A    between atoms: C2_2  and  O1_3 
REMARK    5  A    between atoms: O1_3  and  C3_4 
REMARK    6  A    between atoms: C3_4  and  C4_6 
REMARK    7  A    between atoms: C4_6  and  C5_7 
REMARK    8  A    between atoms: C5_7  and  C6_8 
REMARK    9  A    between atoms: C6_8  and  C7_9 
REMARK   10  A    between atoms: C7_9  and  C8_10 
REMARK   11  A    between atoms: C8_10  and  C9_11 
REMARK   12  A    between atoms: C9_11  and  C10_12 
REMARK   13  A    between atoms: C10_12  and  C11_13 
REMARK   14  A    between atoms: C11_13  and  C12_14 
REMARK   15  A    between atoms: C12_14  and  C13_15 
REMARK   16  A    between atoms: C13_15  and  C14_16 
REMARK   17  A    between atoms: C14_16  and  C15_17 
REMARK   18  A    between atoms: C15_17  and  C16_18 
REMARK   19  A    between atoms: C16_18  and  C17_19 
REMARK   20  A    between atoms: C19_21  and  O3_22 
REMARK   21  A    between atoms: O3_22  and  P1_23 
REMARK   22  A    between atoms: O7_27  and  C20_28 
REMARK   23  A    between atoms: C21_30  and  C22_31 
REMARK   24  A    between atoms: C22_31  and  C23_32 
REMARK   25  A    between atoms: C23_32  and  C24_33 
REMARK   26  A    between atoms: C24_33  and  C25_34 
REMARK   27  A    between atoms: C25_34  and  C26_35 
REMARK   28  A    between atoms: C26_35  and  C27_36 
REMARK   29  A    between atoms: C27_36  and  C28_37 
REMARK   30  A    between atoms: C28_37  and  C29_38 
REMARK   31  A    between atoms: C29_38  and  C30_39 
REMARK   32  A    between atoms: C30_39  and  C31_40 
REMARK   33  A    between atoms: C31_40  and  C32_41 
REMARK   34  A    between atoms: C32_41  and  C33_42 
REMARK   35  A    between atoms: C33_42  and  C34_43 
ROOT
ATOM      1  C1  non A   1       1.762  15.567  -5.617  0.00  0.00     0.174 C 
ENDROOT
BRANCH   1   2
ATOM      2  C2  non A   1       2.350  16.967  -5.878  0.00  0.00     0.213 C 
BRANCH   2   3
ATOM      3  O1  non A   1       1.316  17.769  -6.375  0.00  0.00    -0.319 OA
BRANCH   3   4
ATOM      4  C3  non A   1       1.091  19.062  -5.996  0.00  0.00     0.258 C 
ATOM      5  O2  non A   1       1.421  20.001  -6.749  0.00  0.00    -0.265 OA
BRANCH   4   6
ATOM      6  C4  non A   1       0.441  19.301  -4.668  0.00  0.00     0.111 C 
BRANCH   6   7
ATOM      7  C5  non A   1      -0.941  19.908  -4.818  0.00  0.00     0.010 C 
BRANCH   7   8
ATOM      8  C6  non A   1      -2.016  18.890  -4.481  0.00  0.00     0.000 C 
BRANCH   8   9
ATOM      9  C7  non A   1      -3.395  19.442  -4.774  0.00  0.00     0.000 C 
BRANCH   9  10
ATOM     10  C8  non A   1      -4.507  18.632  -4.142  0.00  0.00     0.000 C 
BRANCH  10  11
ATOM     11  C9  non A   1      -5.461  18.235  -5.283  0.00  0.00     0.000 C 
BRANCH  11  12
ATOM     12  C10 non A   1      -6.336  17.081  -4.919  0.00  0.00     0.000 C 
BRANCH  12  13
ATOM     13  C11 non A   1      -5.588  15.885  -4.494  0.00  0.00     0.000 C 
BRANCH  13  14
ATOM     14  C12 non A   1      -4.701  15.149  -5.390  0.00  0.00     0.000 C 
BRANCH  14  15
ATOM     15  C13 non A   1      -4.914  13.723  -5.685  0.00  0.00     0.000 C 
BRANCH  15  16
ATOM     16  C14 non A   1      -6.286  13.456  -6.338  0.00  0.00     0.000 C 
BRANCH  16  17
ATOM     17  C15 non A   1      -6.401  14.005  -7.717  0.00  0.00     0.000 C 
BRANCH  17  18
ATOM     18  C16 non A   1      -7.662  14.847  -7.841  0.00  0.00    -0.000 C 
BRANCH  18  19
ATOM     19  C17 non A   1      -8.858  13.976  -8.145  0.00  0.00    -0.005 C 
ATOM     20  C18 non A   1      -8.787  13.364  -9.519  0.00  0.00     0.005 C 
ENDBRANCH  18  19
ENDBRANCH  17  18
ENDBRANCH  16  17
ENDBRANCH  15  16
ENDBRANCH  14  15
ENDBRANCH  13  14
ENDBRANCH  12  13
ENDBRANCH  11  12
ENDBRANCH  10  11
ENDBRANCH   9  10
ENDBRANCH   8   9
ENDBRANCH   7   8
ENDBRANCH   6   7
ENDBRANCH   4   6
ENDBRANCH   3   4
ENDBRANCH   2   3
ENDBRANCH   1   2
BRANCH   1  21
ATOM     21  C19 non A   1       2.563  14.611  -6.428  0.00  0.00     0.216 C 
BRANCH  21  22
ATOM     22  O3  non A   1       2.224  13.278  -6.290  0.00  0.00    -0.280 OA
BRANCH  22  23
ATOM     23  P1  non A   1       2.847  12.633  -4.854  0.00  0.00     0.422 P 
ATOM     24  O4  non A   1       4.168  13.476  -4.271  0.00  0.00    -0.617 OA
ATOM     25  O5  non A   1       3.228  11.009  -4.980  0.00  0.00    -0.617 OA
ATOM     26  O6  non A   1       1.723  12.748  -3.822  0.00  0.00    -0.617 OA
ENDBRANCH  22  23
ENDBRANCH  21  22
ENDBRANCH   1  21
BRANCH   1  27
ATOM     27  O7  non A   1       0.369  15.560  -5.899  0.00  0.00    -0.339 OA
BRANCH  27  28
ATOM     28  C20 non A   1      -0.564  15.006  -5.072  0.00  0.00     0.257 C 
ATOM     29  O8  non A   1      -0.827  15.776  -4.037  0.00  0.00    -0.191 OA
ATOM     30  C21 non A   1      -1.297  13.761  -5.118  0.00  0.00     0.078 C 
BRANCH  30  31
ATOM     31  C22 non A   1      -1.170  12.773  -6.180  0.00  0.00     0.006 C 
BRANCH  31  32
ATOM     32  C23 non A   1      -2.035  12.716  -7.345  0.00  0.00     0.000 C 
BRANCH  32  33
ATOM     33  C24 non A   1      -2.347  13.967  -8.127  0.00  0.00     0.000 C 
BRANCH  33  34
ATOM     34  C25 non A   1      -2.564  13.637  -9.569  0.00  0.00     0.000 C 
BRANCH  34  35
ATOM     35  C26 non A   1      -1.814  12.557 -10.212  0.00  0.00     0.000 C 
BRANCH  35  36
ATOM     36  C27 non A   1      -0.513  12.764 -10.868  0.00  0.00     0.000 C 
BRANCH  36  37
ATOM     37  C28 non A   1       0.677  12.924 -10.028  0.00  0.00     0.000 C 
BRANCH  37  38
ATOM     38  C29 non A   1       0.971  11.654  -9.204  0.00  0.00     0.000 C 
BRANCH  38  39
ATOM     39  C30 non A   1       1.499  10.528 -10.021  0.00  0.00     0.000 C 
BRANCH  39  40
ATOM     40  C31 non A   1       2.988  10.468  -9.856  0.00  0.00     0.000 C 
BRANCH  40  41
ATOM     41  C32 non A   1       3.479  10.817  -8.480  0.00  0.00     0.000 C 
BRANCH  41  42
ATOM     42  C33 non A   1       4.736  11.671  -8.689  0.00  0.00    -0.000 C 
BRANCH  42  43
ATOM     43  C34 non A   1       4.674  12.396 -10.007  0.00  0.00    -0.005 C 
ATOM     44  C35 non A   1       6.091  12.760 -10.428  0.00  0.00     0.005 C 
ENDBRANCH  42  43
ENDBRANCH  41  42
ENDBRANCH  40  41
ENDBRANCH  39  40
ENDBRANCH  38  39
ENDBRANCH  37  38
ENDBRANCH  36  37
ENDBRANCH  35  36
ENDBRANCH  34  35
ENDBRANCH  33  34
ENDBRANCH  32  33
ENDBRANCH  31  32
ENDBRANCH  30  31
ENDBRANCH  27  28
ENDBRANCH   1  27
TORSDOF 35
ENDMDL
MODEL 2
REMARK VINA RESULT:      -2.5     28.336     31.220
REMARK WARNING: 32 MAX_TORS EXCEEDED!!!
REMARK  35 active torsions:
REMARK  status: ('A' for Active; 'I' for Inactive)
REMARK    1  A    between atoms: C1_1  and  C2_2 
REMARK    2  A    between atoms: C1_1  and  C19_21 
REMARK    3  A    between atoms: C1_1  and  O7_27 
REMARK    4  A    between atoms: C2_2  and  O1_3 
REMARK    5  A    between atoms: O1_3  and  C3_4 
REMARK    6  A    between atoms: C3_4  and  C4_6 
REMARK    7  A    between atoms: C4_6  and  C5_7 
REMARK    8  A    between atoms: C5_7  and  C6_8 
REMARK    9  A    between atoms: C6_8  and  C7_9 
REMARK   10  A    between atoms: C7_9  and  C8_10 
REMARK   11  A    between atoms: C8_10  and  C9_11 
REMARK   12  A    between atoms: C9_11  and  C10_12 
REMARK   13  A    between atoms: C10_12  and  C11_13 
REMARK   14  A    between atoms: C11_13  and  C12_14 
REMARK   15  A    between atoms: C12_14  and  C13_15 
REMARK   16  A    between atoms: C13_15  and  C14_16 
REMARK   17  A    between atoms: C14_16  and  C15_17 
REMARK   18  A    between atoms: C15_17  and  C16_18 
REMARK   19  A    between atoms: C16_18  and  C17_19 
REMARK   20  A    between atoms: C19_21  and  O3_22 
REMARK   21  A    between atoms: O3_22  and  P1_23 
REMARK   22  A    between atoms: O7_27  and  C20_28 
REMARK   23  A    between atoms: C21_30  and  C22_31 
REMARK   24  A    between atoms: C22_31  and  C23_32 
REMARK   25  A    between atoms: C23_32  and  C24_33 
REMARK   26  A    between atoms: C24_33  and  C25_34 
REMARK   27  A    between atoms: C25_34  and  C26_35 
REMARK   28  A    between atoms: C26_35  and  C27_36 
REMARK   29  A    between atoms: C27_36  and  C28_37 
REMARK   30  A    between atoms: C28_37  and  C29_38 
REMARK   31  A    between atoms: C29_38  and  C30_39 
REMARK   32  A    between atoms: C30_39  and  C31_40 
REMARK   33  A    between atoms: C31_40  and  C32_41 
REMARK   34  A    between atoms: C32_41  and  C33_42 
REMARK   35  A    between atoms: C33_42  and  C34_43 
ROOT
ATOM      1  C1  non A   1      16.414   1.669  17.640  0.00  0.00     0.174 C 
ENDROOT
BRANCH   1   2
ATOM      2  C2  non A   1      15.121   1.820  16.816  0.00  0.00     0.213 C 
BRANCH   2   3
ATOM      3  O1  non A   1      15.430   2.592  15.689  0.00  0.00    -0.319 OA
BRANCH   3   4
ATOM      4  C3  non A   1      14.608   3.544  15.157  0.00  0.00     0.258 C 
ATOM      5  O2  non A   1      14.449   4.633  15.744  0.00  0.00    -0.265 OA
BRANCH   4   6
ATOM      6  C4  non A   1      13.923   3.234  13.860  0.00  0.00     0.111 C 
BRANCH   6   7
ATOM      7  C5  non A   1      14.506   4.033  12.710  0.00  0.00     0.010 C 
BRANCH   7   8
ATOM      8  C6  non A   1      13.471   4.242  11.619  0.00  0.00     0.000 C 
BRANCH   8   9
ATOM      9  C7  non A   1      13.887   3.550  10.338  0.00  0.00     0.000 C 
BRANCH   9  10
ATOM     10  C8  non A   1      14.713   4.432   9.427  0.00  0.00     0.000 C 
BRANCH  10  11
ATOM     11  C9  non A   1      13.834   4.739   8.201  0.00  0.00     0.000 C 
BRANCH  11  12
ATOM     12  C10 non A   1      13.027   3.558   7.769  0.00  0.00     0.000 C 
BRANCH  12  13
ATOM     13  C11 non A   1      13.832   2.489   7.153  0.00  0.00     0.000 C 
BRANCH  13  14
ATOM     14  C12 non A   1      13.285   1.175   6.831  0.00  0.00     0.000 C 
BRANCH  14  15
ATOM     15  C13 non A   1      12.396   0.460   7.762  0.00  0.00     0.000 C 
BRANCH  15  16
ATOM     16  C14 non A   1      10.970   0.286   7.197  0.00  0.00     0.000 C 
BRANCH  16  17
ATOM     17  C15 non A   1      10.003  -0.250   8.193  0.00  0.00     0.000 C 
BRANCH  17  18
ATOM     18  C16 non A   1       9.366   0.892   8.970  0.00  0.00    -0.000 C 
BRANCH  18  19
ATOM     19  C17 non A   1      10.040   1.068  10.310  0.00  0.00    -0.005 C 
ATOM     20  C18 non A   1      10.295   2.515  10.638  0.00  0.00     0.005 C 
ENDBRANCH  18  19
ENDBRANCH  17  18
ENDBRANCH  16  17
ENDBRANCH  15  16
ENDBRANCH  14  15
ENDBRANCH  13  14
ENDBRANCH  12  13
ENDBRANCH  11  12
ENDBRANCH  10  11
ENDBRANCH   9  10
ENDBRANCH   8   9
ENDBRANCH   7   8
ENDBRANCH   6   7
ENDBRANCH   4   6
ENDBRANCH   3   4
ENDBRANCH   2   3
ENDBRANCH   1   2
BRANCH   1  21
ATOM     21  C19 non A   1      17.495   1.326  16.678  0.00  0.00     0.216 C 
BRANCH  21  22
ATOM     22  O3  non A   1      17.438   0.054  16.140  0.00  0.00    -0.280 OA
BRANCH  22  23
ATOM     23  P1  non A   1      18.843  -0.824  16.490  0.00  0.00     0.422 P 
ATOM     24  O4  non A   1      18.537  -2.406  16.939  0.00  0.00    -0.617 OA
ATOM     25  O5  non A   1      19.800  -0.087  17.647  0.00  0.00    -0.617 OA
ATOM     26  O6  non A   1      19.652  -0.851  15.193  0.00  0.00    -0.617 OA
ENDBRANCH  22  23
ENDBRANCH  21  22
ENDBRANCH   1  21
BRANCH   1  27
ATOM     27  O7  non A   1      16.223   0.718  18.679  0.00  0.00    -0.339 OA
BRANCH  27  28
ATOM     28  C20 non A   1      15.954   1.060  19.972  0.00  0.00     0.257 C 
ATOM     29  O8  non A   1      17.053   1.237  20.676  0.00  0.00    -0.191 OA
ATOM     30  C21 non A   1      14.719   1.256  20.697  0.00  0.00     0.078 C 
BRANCH  30  31
ATOM     31  C22 non A   1      13.393   1.125  20.108  0.00  0.00     0.006 C 
BRANCH  31  32
ATOM     32  C23 non A   1      12.469   0.048  20.419  0.00  0.00     0.000 C 
BRANCH  32  33
ATOM     33  C24 non A   1      12.075  -0.950  19.360  0.00  0.00     0.000 C 
BRANCH  33  34
ATOM     34  C25 non A   1      13.155  -1.967  19.178  0.00  0.00     0.000 C 
BRANCH  34  35
ATOM     35  C26 non A   1      13.062  -2.979  18.126  0.00  0.00     0.000 C 
BRANCH  35  36
ATOM     36  C27 non A   1      14.191  -3.332  17.249  0.00  0.00     0.000 C 
BRANCH  36  37
ATOM     37  C28 non A   1      13.967  -4.309  16.180  0.00  0.00     0.000 C 
BRANCH  37  38
ATOM     38  C29 non A   1      14.602  -5.675  16.508  0.00  0.00     0.000 C 
BRANCH  38  39
ATOM     39  C30 non A   1      14.141  -6.245  17.803  0.00  0.00     0.000 C 
BRANCH  39  40
ATOM     40  C31 non A   1      13.197  -7.377  17.522  0.00  0.00     0.000 C 
BRANCH  40  41
ATOM     41  C32 non A   1      13.487  -8.636  18.287  0.00  0.00     0.000 C 
BRANCH  41  42
ATOM     42  C33 non A   1      14.988  -8.899  18.107  0.00  0.00    -0.000 C 
BRANCH  42  43
ATOM     43  C34 non A   1      15.537  -9.670  19.277  0.00  0.00    -0.005 C 
ATOM     44  C35 non A   1      17.041  -9.823  19.094  0.00  0.00     0.005 C 
ENDBRANCH  42  43
ENDBRANCH  41  42
ENDBRANCH  40  41
ENDBRANCH  39  40
ENDBRANCH  38  39
ENDBRANCH  37  38
ENDBRANCH  36  37
ENDBRANCH  35  36
ENDBRANCH  34  35
ENDBRANCH  33  34
ENDBRANCH  32  33
ENDBRANCH  31  32
ENDBRANCH  30  31
ENDBRANCH  27  28
ENDBRANCH   1  27
TORSDOF 35
ENDMDL
MODEL 3
REMARK VINA RESULT:      -2.5      9.219     13.445
REMARK WARNING: 32 MAX_TORS EXCEEDED!!!
REMARK  35 active torsions:
REMARK  status: ('A' for Active; 'I' for Inactive)
REMARK    1  A    between atoms: C1_1  and  C2_2 
REMARK    2  A    between atoms: C1_1  and  C19_21 
REMARK    3  A    between atoms: C1_1  and  O7_27 
REMARK    4  A    between atoms: C2_2  and  O1_3 
REMARK    5  A    between atoms: O1_3  and  C3_4 
REMARK    6  A    between atoms: C3_4  and  C4_6 
REMARK    7  A    between atoms: C4_6  and  C5_7 
REMARK    8  A    between atoms: C5_7  and  C6_8 
REMARK    9  A    between atoms: C6_8  and  C7_9 
REMARK   10  A    between atoms: C7_9  and  C8_10 
REMARK   11  A    between atoms: C8_10  and  C9_11 
REMARK   12  A    between atoms: C9_11  and  C10_12 
REMARK   13  A    between atoms: C10_12  and  C11_13 
REMARK   14  A    between atoms: C11_13  and  C12_14 
REMARK   15  A    between atoms: C12_14  and  C13_15 
REMARK   16  A    between atoms: C13_15  and  C14_16 
REMARK   17  A    between atoms: C14_16  and  C15_17 
REMARK   18  A    between atoms: C15_17  and  C16_18 
REMARK   19  A    between atoms: C16_18  and  C17_19 
REMARK   20  A    between atoms: C19_21  and  O3_22 
REMARK   21  A    between atoms: O3_22  and  P1_23 
REMARK   22  A    between atoms: O7_27  and  C20_28 
REMARK   23  A    between atoms: C21_30  and  C22_31 
REMARK   24  A    between atoms: C22_31  and  C23_32 
REMARK   25  A    between atoms: C23_32  and  C24_33 
REMARK   26  A    between atoms: C24_33  and  C25_34 
REMARK   27  A    between atoms: C25_34  and  C26_35 
REMARK   28  A    between atoms: C26_35  and  C27_36 
REMARK   29  A    between atoms: C27_36  and  C28_37 
REMARK   30  A    between atoms: C28_37  and  C29_38 
REMARK   31  A    between atoms: C29_38  and  C30_39 
REMARK   32  A    between atoms: C30_39  and  C31_40 
REMARK   33  A    between atoms: C31_40  and  C32_41 
REMARK   34  A    between atoms: C32_41  and  C33_42 
REMARK   35  A    between atoms: C33_42  and  C34_43 
ROOT
ATOM      1  C1  non A   1      10.006  11.994  -3.017  0.00  0.00     0.174 C 
ENDROOT
BRANCH   1   2
ATOM      2  C2  non A   1       8.544  12.202  -2.581  0.00  0.00     0.213 C 
BRANCH   2   3
ATOM      3  O1  non A   1       7.987  13.169  -3.427  0.00  0.00    -0.319 OA
BRANCH   3   4
ATOM      4  C3  non A   1       7.412  14.331  -2.998  0.00  0.00     0.258 C 
ATOM      5  O2  non A   1       6.752  15.033  -3.791  0.00  0.00    -0.265 OA
BRANCH   4   6
ATOM      6  C4  non A   1       7.598  14.717  -1.562  0.00  0.00     0.111 C 
BRANCH   6   7
ATOM      7  C5  non A   1       6.938  16.047  -1.246  0.00  0.00     0.010 C 
BRANCH   7   8
ATOM      8  C6  non A   1       7.945  17.022  -0.660  0.00  0.00     0.000 C 
BRANCH   8   9
ATOM      9  C7  non A   1       8.554  17.887  -1.742  0.00  0.00     0.000 C 
BRANCH   9  10
ATOM     10  C8  non A   1       8.730  19.330  -1.322  0.00  0.00     0.000 C 
BRANCH  10  11
ATOM     11  C9  non A   1       8.023  19.479   0.038  0.00  0.00     0.000 C 
BRANCH  11  12
ATOM     12  C10 non A   1       7.052  20.613   0.054  0.00  0.00     0.000 C 
BRANCH  12  13
ATOM     13  C11 non A   1       5.914  20.428  -0.864  0.00  0.00     0.000 C 
BRANCH  13  14
ATOM     14  C12 non A   1       4.897  19.401  -0.663  0.00  0.00     0.000 C 
BRANCH  14  15
ATOM     15  C13 non A   1       4.392  18.586  -1.780  0.00  0.00     0.000 C 
BRANCH  15  16
ATOM     16  C14 non A   1       5.244  18.746  -3.056  0.00  0.00     0.000 C 
BRANCH  16  17
ATOM     17  C15 non A   1       4.545  18.300  -4.292  0.00  0.00     0.000 C 
BRANCH  17  18
ATOM     18  C16 non A   1       3.624  19.400  -4.798  0.00  0.00    -0.000 C 
BRANCH  18  19
ATOM     19  C17 non A   1       3.157  19.102  -6.203  0.00  0.00    -0.005 C 
ATOM     20  C18 non A   1       4.095  19.647  -7.247  0.00  0.00     0.005 C 
ENDBRANCH  18  19
ENDBRANCH  17  18
ENDBRANCH  16  17
ENDBRANCH  15  16
ENDBRANCH  14  15
ENDBRANCH  13  14
ENDBRANCH  12  13
ENDBRANCH  11  12
ENDBRANCH  10  11
ENDBRANCH   9  10
ENDBRANCH   8   9
ENDBRANCH   7   8
ENDBRANCH   6   7
ENDBRANCH   4   6
ENDBRANCH   3   4
ENDBRANCH   2   3
ENDBRANCH   1   2
BRANCH   1  21
ATOM     21  C19 non A   1      10.073  10.656  -3.664  0.00  0.00     0.216 C 
BRANCH  21  22
ATOM     22  O3  non A   1      10.129  10.660  -5.045  0.00  0.00    -0.280 OA
BRANCH  22  23
ATOM     23  P1  non A   1       8.803   9.848  -5.715  0.00  0.00     0.422 P 
ATOM     24  O4  non A   1       9.164   9.067  -7.149  0.00  0.00    -0.617 OA
ATOM     25  O5  non A   1       7.474  10.840  -5.936  0.00  0.00    -0.617 OA
ATOM     26  O6  non A   1       8.401   8.787  -4.689  0.00  0.00    -0.617 OA
ENDBRANCH  22  23
ENDBRANCH  21  22
ENDBRANCH   1  21
BRANCH   1  27
ATOM     27  O7  non A   1      10.877  12.157  -1.905  0.00  0.00    -0.339 OA
BRANCH  27  28
ATOM     28  C20 non A   1      10.495  11.943  -0.613  0.00  0.00     0.257 C 
ATOM     29  O8  non A   1      10.332  10.663  -0.350  0.00  0.00    -0.191 OA
ATOM     30  C21 non A   1      10.238  12.837   0.493  0.00  0.00     0.078 C 
BRANCH  30  31
ATOM     31  C22 non A   1      10.372  14.286   0.425  0.00  0.00     0.006 C 
BRANCH  31  32
ATOM     32  C23 non A   1      11.543  14.970  -0.096  0.00  0.00     0.000 C 
BRANCH  32  33
ATOM     33  C24 non A   1      11.621  16.475  -0.076  0.00  0.00     0.000 C 
BRANCH  33  34
ATOM     34  C25 non A   1      11.779  16.968   1.327  0.00  0.00     0.000 C 
BRANCH  34  35
ATOM     35  C26 non A   1      10.736  17.775   1.959  0.00  0.00     0.000 C 
BRANCH  35  36
ATOM     36  C27 non A   1       9.469  17.208   2.451  0.00  0.00     0.000 C 
BRANCH  36  37
ATOM     37  C28 non A   1       9.426  16.671   3.814  0.00  0.00     0.000 C 
BRANCH  37  38
ATOM     38  C29 non A   1       8.243  17.246   4.620  0.00  0.00     0.000 C 
BRANCH  38  39
ATOM     39  C30 non A   1       8.663  18.181   5.699  0.00  0.00     0.000 C 
BRANCH  39  40
ATOM     40  C31 non A   1       9.991  17.733   6.234  0.00  0.00     0.000 C 
BRANCH  40  41
ATOM     41  C32 non A   1       9.983  17.353   7.687  0.00  0.00     0.000 C 
BRANCH  41  42
ATOM     42  C33 non A   1      10.279  15.848   7.727  0.00  0.00    -0.000 C 
BRANCH  42  43
ATOM     43  C34 non A   1      11.372  15.496   6.752  0.00  0.00    -0.005 C 
ATOM     44  C35 non A   1      12.577  14.993   7.536  0.00  0.00     0.005 C 
ENDBRANCH  42  43
ENDBRANCH  41  42
ENDBRANCH  40  41
ENDBRANCH  39  40
ENDBRANCH  38  39
ENDBRANCH  37  38
ENDBRANCH  36  37
ENDBRANCH  35  36
ENDBRANCH  34  35
ENDBRANCH  33  34
ENDBRANCH  32  33
ENDBRANCH  31  32
ENDBRANCH  30  31
ENDBRANCH  27  28
ENDBRANCH   1  27
TORSDOF 35
ENDMDL
MODEL 4
REMARK VINA RESULT:      -2.5      4.852      8.674
REMARK WARNING: 32 MAX_TORS EXCEEDED!!!
REMARK  35 active torsions:
REMARK  status: ('A' for Active; 'I' for Inactive)
REMARK    1  A    between atoms: C1_1  and  C2_2 
REMARK    2  A    between atoms: C1_1  and  C19_21 
REMARK    3  A    between atoms: C1_1  and  O7_27 
REMARK    4  A    between atoms: C2_2  and  O1_3 
REMARK    5  A    between atoms: O1_3  and  C3_4 
REMARK    6  A    between atoms: C3_4  and  C4_6 
REMARK    7  A    between atoms: C4_6  and  C5_7 
REMARK    8  A    between atoms: C5_7  and  C6_8 
REMARK    9  A    between atoms: C6_8  and  C7_9 
REMARK   10  A    between atoms: C7_9  and  C8_10 
REMARK   11  A    between atoms: C8_10  and  C9_11 
REMARK   12  A    between atoms: C9_11  and  C10_12 
REMARK   13  A    between atoms: C10_12  and  C11_13 
REMARK   14  A    between atoms: C11_13  and  C12_14 
REMARK   15  A    between atoms: C12_14  and  C13_15 
REMARK   16  A    between atoms: C13_15  and  C14_16 
REMARK   17  A    between atoms: C14_16  and  C15_17 
REMARK   18  A    between atoms: C15_17  and  C16_18 
REMARK   19  A    between atoms: C16_18  and  C17_19 
REMARK   20  A    between atoms: C19_21  and  O3_22 
REMARK   21  A    between atoms: O3_22  and  P1_23 
REMARK   22  A    between atoms: O7_27  and  C20_28 
REMARK   23  A    between atoms: C21_30  and  C22_31 
REMARK   24  A    between atoms: C22_31  and  C23_32 
REMARK   25  A    between atoms: C23_32  and  C24_33 
REMARK   26  A    between atoms: C24_33  and  C25_34 
REMARK   27  A    between atoms: C25_34  and  C26_35 
REMARK   28  A    between atoms: C26_35  and  C27_36 
REMARK   29  A    between atoms: C27_36  and  C28_37 
REMARK   30  A    between atoms: C28_37  and  C29_38 
REMARK   31  A    between atoms: C29_38  and  C30_39 
REMARK   32  A    between atoms: C30_39  and  C31_40 
REMARK   33  A    between atoms: C31_40  and  C32_41 
REMARK   34  A    between atoms: C32_41  and  C33_42 
REMARK   35  A    between atoms: C33_42  and  C34_43 
ROOT
ATOM      1  C1  non A   1       8.031  13.682  -4.252  0.00  0.00     0.174 C 
ENDROOT
BRANCH   1   2
ATOM      2  C2  non A   1       6.627  14.128  -3.802  0.00  0.00     0.213 C 
BRANCH   2   3
ATOM      3  O1  non A   1       5.749  13.067  -4.054  0.00  0.00    -0.319 OA
BRANCH   3   4
ATOM      4  C3  non A   1       4.632  13.158  -4.834  0.00  0.00     0.258 C 
ATOM      5  O2  non A   1       4.683  12.841  -6.040  0.00  0.00    -0.265 OA
BRANCH   4   6
ATOM      6  C4  non A   1       3.366  13.640  -4.194  0.00  0.00     0.111 C 
BRANCH   6   7
ATOM      7  C5  non A   1       2.835  14.891  -4.868  0.00  0.00     0.010 C 
BRANCH   7   8
ATOM      8  C6  non A   1       2.432  15.930  -3.836  0.00  0.00     0.000 C 
BRANCH   8   9
ATOM      9  C7  non A   1       3.000  15.589  -2.475  0.00  0.00     0.000 C 
BRANCH   9  10
ATOM     10  C8  non A   1       4.140  16.494  -2.062  0.00  0.00     0.000 C 
BRANCH  10  11
ATOM     11  C9  non A   1       3.531  17.574  -1.149  0.00  0.00     0.000 C 
BRANCH  11  12
ATOM     12  C10 non A   1       3.978  18.951  -1.519  0.00  0.00     0.000 C 
BRANCH  12  13
ATOM     13  C11 non A   1       2.924  19.762  -2.151  0.00  0.00     0.000 C 
BRANCH  13  14
ATOM     14  C12 non A   1       2.636  19.708  -3.580  0.00  0.00     0.000 C 
BRANCH  14  15
ATOM     15  C13 non A   1       1.610  20.568  -4.194  0.00  0.00     0.000 C 
BRANCH  15  16
ATOM     16  C14 non A   1       1.152  20.045  -5.572  0.00  0.00     0.000 C 
BRANCH  16  17
ATOM     17  C15 non A   1       0.096  18.999  -5.484  0.00  0.00     0.000 C 
BRANCH  17  18
ATOM     18  C16 non A   1      -1.024  19.464  -4.567  0.00  0.00    -0.000 C 
BRANCH  18  19
ATOM     19  C17 non A   1      -1.935  20.432  -5.284  0.00  0.00    -0.005 C 
ATOM     20  C18 non A   1      -3.266  20.585  -4.595  0.00  0.00     0.005 C 
ENDBRANCH  18  19
ENDBRANCH  17  18
ENDBRANCH  16  17
ENDBRANCH  15  16
ENDBRANCH  14  15
ENDBRANCH  13  14
ENDBRANCH  12  13
ENDBRANCH  11  12
ENDBRANCH  10  11
ENDBRANCH   9  10
ENDBRANCH   8   9
ENDBRANCH   7   8
ENDBRANCH   6   7
ENDBRANCH   4   6
ENDBRANCH   3   4
ENDBRANCH   2   3
ENDBRANCH   1   2
BRANCH   1  21
ATOM     21  C19 non A   1       8.204  12.280  -3.786  0.00  0.00     0.216 C 
BRANCH  21  22
ATOM     22  O3  non A   1       8.402  11.339  -4.778  0.00  0.00    -0.280 OA
BRANCH  22  23
ATOM     23  P1  non A   1       9.458  10.120  -4.264  0.00  0.00     0.422 P 
ATOM     24  O4  non A   1      10.945  10.170  -5.028  0.00  0.00    -0.617 OA
ATOM     25  O5  non A   1       8.804   8.587  -4.408  0.00  0.00    -0.617 OA
ATOM     26  O6  non A   1       9.688  10.368  -2.772  0.00  0.00    -0.617 OA
ENDBRANCH  22  23
ENDBRANCH  21  22
ENDBRANCH   1  21
BRANCH   1  27
ATOM     27  O7  non A   1       9.012  14.591  -3.769  0.00  0.00    -0.339 OA
BRANCH  27  28
ATOM     28  C20 non A   1       9.812  15.338  -4.583  0.00  0.00     0.257 C 
ATOM     29  O8  non A   1       9.690  16.628  -4.350  0.00  0.00    -0.191 OA
ATOM     30  C21 non A   1      10.745  14.986  -5.630  0.00  0.00     0.078 C 
BRANCH  30  31
ATOM     31  C22 non A   1      11.042  13.620  -6.039  0.00  0.00     0.006 C 
BRANCH  31  32
ATOM     32  C23 non A   1      10.411  12.953  -7.164  0.00  0.00     0.000 C 
BRANCH  32  33
ATOM     33  C24 non A   1      11.243  12.211  -8.178  0.00  0.00     0.000 C 
BRANCH  33  34
ATOM     34  C25 non A   1      10.394  11.245  -8.940  0.00  0.00     0.000 C 
BRANCH  34  35
ATOM     35  C26 non A   1      10.320   9.838  -8.543  0.00  0.00     0.000 C 
BRANCH  35  36
ATOM     36  C27 non A   1       9.070   9.190  -8.112  0.00  0.00     0.000 C 
BRANCH  36  37
ATOM     37  C28 non A   1       8.502   8.136  -8.956  0.00  0.00     0.000 C 
BRANCH  37  38
ATOM     38  C29 non A   1       7.599   8.713 -10.066  0.00  0.00     0.000 C 
BRANCH  38  39
ATOM     39  C30 non A   1       6.456   9.508  -9.542  0.00  0.00     0.000 C 
BRANCH  39  40
ATOM     40  C31 non A   1       5.485   8.577  -8.879  0.00  0.00     0.000 C 
BRANCH  40  41
ATOM     41  C32 non A   1       4.108   9.144  -8.683  0.00  0.00     0.000 C 
BRANCH  41  42
ATOM     42  C33 non A   1       4.115  10.508  -9.385  0.00  0.00    -0.000 C 
BRANCH  42  43
ATOM     43  C34 non A   1       2.924  10.643 -10.296  0.00  0.00    -0.005 C 
ATOM     44  C35 non A   1       3.378  10.392 -11.728  0.00  0.00     0.005 C 
ENDBRANCH  42  43
ENDBRANCH  41  42
ENDBRANCH  40  41
ENDBRANCH  39  40
ENDBRANCH  38  39
ENDBRANCH  37  38
ENDBRANCH  36  37
ENDBRANCH  35  36
ENDBRANCH  34  35
ENDBRANCH  33  34
ENDBRANCH  32  33
ENDBRANCH  31  32
ENDBRANCH  30  31
ENDBRANCH  27  28
ENDBRANCH   1  27
TORSDOF 35
ENDMDL
MODEL 5
REMARK VINA RESULT:      -2.4     22.820     26.565
REMARK WARNING: 32 MAX_TORS EXCEEDED!!!
REMARK  35 active torsions:
REMARK  status: ('A' for Active; 'I' for Inactive)
REMARK    1  A    between atoms: C1_1  and  C2_2 
REMARK    2  A    between atoms: C1_1  and  C19_21 
REMARK    3  A    between atoms: C1_1  and  O7_27 
REMARK    4  A    between atoms: C2_2  and  O1_3 
REMARK    5  A    between atoms: O1_3  and  C3_4 
REMARK    6  A    between atoms: C3_4  and  C4_6 
REMARK    7  A    between atoms: C4_6  and  C5_7 
REMARK    8  A    between atoms: C5_7  and  C6_8 
REMARK    9  A    between atoms: C6_8  and  C7_9 
REMARK   10  A    between atoms: C7_9  and  C8_10 
REMARK   11  A    between atoms: C8_10  and  C9_11 
REMARK   12  A    between atoms: C9_11  and  C10_12 
REMARK   13  A    between atoms: C10_12  and  C11_13 
REMARK   14  A    between atoms: C11_13  and  C12_14 
REMARK   15  A    between atoms: C12_14  and  C13_15 
REMARK   16  A    between atoms: C13_15  and  C14_16 
REMARK   17  A    between atoms: C14_16  and  C15_17 
REMARK   18  A    between atoms: C15_17  and  C16_18 
REMARK   19  A    between atoms: C16_18  and  C17_19 
REMARK   20  A    between atoms: C19_21  and  O3_22 
REMARK   21  A    between atoms: O3_22  and  P1_23 
REMARK   22  A    between atoms: O7_27  and  C20_28 
REMARK   23  A    between atoms: C21_30  and  C22_31 
REMARK   24  A    between atoms: C22_31  and  C23_32 
REMARK   25  A    between atoms: C23_32  and  C24_33 
REMARK   26  A    between atoms: C24_33  and  C25_34 
REMARK   27  A    between atoms: C25_34  and  C26_35 
REMARK   28  A    between atoms: C26_35  and  C27_36 
REMARK   29  A    between atoms: C27_36  and  C28_37 
REMARK   30  A    between atoms: C28_37  and  C29_38 
REMARK   31  A    between atoms: C29_38  and  C30_39 
REMARK   32  A    between atoms: C30_39  and  C31_40 
REMARK   33  A    between atoms: C31_40  and  C32_41 
REMARK   34  A    between atoms: C32_41  and  C33_42 
REMARK   35  A    between atoms: C33_42  and  C34_43 
ROOT
ATOM      1  C1  non A   1      12.583  -5.757  -6.087  0.00  0.00     0.174 C 
ENDROOT
BRANCH   1   2
ATOM      2  C2  non A   1      11.153  -5.222  -5.888  0.00  0.00     0.213 C 
BRANCH   2   3
ATOM      3  O1  non A   1      10.304  -5.980  -6.703  0.00  0.00    -0.319 OA
BRANCH   3   4
ATOM      4  C3  non A   1       9.656  -5.497  -7.804  0.00  0.00     0.258 C 
ATOM      5  O2  non A   1       9.400  -4.279  -7.895  0.00  0.00    -0.265 OA
BRANCH   4   6
ATOM      6  C4  non A   1       9.277  -6.470  -8.878  0.00  0.00     0.111 C 
BRANCH   6   7
ATOM      7  C5  non A   1       9.852  -7.850  -8.618  0.00  0.00     0.010 C 
BRANCH   7   8
ATOM      8  C6  non A   1       9.614  -8.766  -9.805  0.00  0.00     0.000 C 
BRANCH   8   9
ATOM      9  C7  non A   1       9.393 -10.193  -9.352  0.00  0.00     0.000 C 
BRANCH   9  10
ATOM     10  C8  non A   1      10.444 -11.152  -9.870  0.00  0.00     0.000 C 
BRANCH  10  11
ATOM     11  C9  non A   1       9.705 -12.449 -10.244  0.00  0.00     0.000 C 
BRANCH  11  12
ATOM     12  C10 non A   1      10.618 -13.630 -10.295  0.00  0.00     0.000 C 
BRANCH  12  13
ATOM     13  C11 non A   1      10.006 -14.870  -9.786  0.00  0.00     0.000 C 
BRANCH  13  14
ATOM     14  C12 non A   1      10.788 -16.057  -9.452  0.00  0.00     0.000 C 
BRANCH  14  15
ATOM     15  C13 non A   1      11.271 -16.302  -8.083  0.00  0.00     0.000 C 
BRANCH  15  16
ATOM     16  C14 non A   1      12.469 -15.402  -7.713  0.00  0.00     0.000 C 
BRANCH  16  17
ATOM     17  C15 non A   1      12.369 -14.821  -6.345  0.00  0.00     0.000 C 
BRANCH  17  18
ATOM     18  C16 non A   1      10.935 -14.402  -6.059  0.00  0.00    -0.000 C 
BRANCH  18  19
ATOM     19  C17 non A   1      10.675 -13.005  -6.573  0.00  0.00    -0.005 C 
ATOM     20  C18 non A   1       9.213 -12.645  -6.539  0.00  0.00     0.005 C 
ENDBRANCH  18  19
ENDBRANCH  17  18
ENDBRANCH  16  17
ENDBRANCH  15  16
ENDBRANCH  14  15
ENDBRANCH  13  14
ENDBRANCH  12  13
ENDBRANCH  11  12
ENDBRANCH  10  11
ENDBRANCH   9  10
ENDBRANCH   8   9
ENDBRANCH   7   8
ENDBRANCH   6   7
ENDBRANCH   4   6
ENDBRANCH   3   4
ENDBRANCH   2   3
ENDBRANCH   1   2
BRANCH   1  21
ATOM     21  C19 non A   1      12.905  -6.571  -4.884  0.00  0.00     0.216 C 
BRANCH  21  22
ATOM     22  O3  non A   1      12.214  -6.240  -3.734  0.00  0.00    -0.280 OA
BRANCH  22  23
ATOM     23  P1  non A   1      13.192  -5.373  -2.658  0.00  0.00     0.422 P 
ATOM     24  O4  non A   1      14.785  -5.268  -3.155  0.00  0.00    -0.617 OA
ATOM     25  O5  non A   1      13.129  -5.967  -1.096  0.00  0.00    -0.617 OA
ATOM     26  O6  non A   1      12.616  -3.956  -2.620  0.00  0.00    -0.617 OA
ENDBRANCH  22  23
ENDBRANCH  21  22
ENDBRANCH   1  21
BRANCH   1  27
ATOM     27  O7  non A   1      13.480  -4.681  -6.330  0.00  0.00    -0.339 OA
BRANCH  27  28
ATOM     28  C20 non A   1      13.153  -3.582  -7.069  0.00  0.00     0.257 C 
ATOM     29  O8  non A   1      13.226  -2.471  -6.365  0.00  0.00    -0.191 OA
ATOM     30  C21 non A   1      12.749  -3.413  -8.447  0.00  0.00     0.078 C 
BRANCH  30  31
ATOM     31  C22 non A   1      12.618  -4.503  -9.403  0.00  0.00     0.006 C 
BRANCH  31  32
ATOM     32  C23 non A   1      13.689  -5.430  -9.729  0.00  0.00     0.000 C 
BRANCH  32  33
ATOM     33  C24 non A   1      13.433  -6.915  -9.753  0.00  0.00     0.000 C 
BRANCH  33  34
ATOM     34  C25 non A   1      12.729  -7.301 -11.014  0.00  0.00     0.000 C 
BRANCH  34  35
ATOM     35  C26 non A   1      12.795  -6.447 -12.200  0.00  0.00     0.000 C 
BRANCH  35  36
ATOM     36  C27 non A   1      13.956  -6.420 -13.105  0.00  0.00     0.000 C 
BRANCH  36  37
ATOM     37  C28 non A   1      14.417  -5.125 -13.613  0.00  0.00     0.000 C 
BRANCH  37  38
ATOM     38  C29 non A   1      13.566  -3.960 -13.069  0.00  0.00     0.000 C 
BRANCH  38  39
ATOM     39  C30 non A   1      14.370  -2.762 -12.705  0.00  0.00     0.000 C 
BRANCH  39  40
ATOM     40  C31 non A   1      15.670  -3.216 -12.109  0.00  0.00     0.000 C 
BRANCH  40  41
ATOM     41  C32 non A   1      15.944  -2.687 -10.730  0.00  0.00     0.000 C 
BRANCH  41  42
ATOM     42  C33 non A   1      15.118  -1.400 -10.605  0.00  0.00    -0.000 C 
BRANCH  42  43
ATOM     43  C34 non A   1      15.869  -0.361  -9.815  0.00  0.00    -0.005 C 
ATOM     44  C35 non A   1      17.267  -0.223 -10.401  0.00  0.00     0.005 C 
ENDBRANCH  42  43
ENDBRANCH  41  42
ENDBRANCH  40  41
ENDBRANCH  39  40
ENDBRANCH  38  39
ENDBRANCH  37  38
ENDBRANCH  36  37
ENDBRANCH  35  36
ENDBRANCH  34  35
ENDBRANCH  33  34
ENDBRANCH  32  33
ENDBRANCH  31  32
ENDBRANCH  30  31
ENDBRANCH  27  28
ENDBRANCH   1  27
TORSDOF 35
ENDMDL
MODEL 6
REMARK VINA RESULT:      -2.4     28.046     30.913
REMARK WARNING: 32 MAX_TORS EXCEEDED!!!
REMARK  35 active torsions:
REMARK  status: ('A' for Active; 'I' for Inactive)
REMARK    1  A    between atoms: C1_1  and  C2_2 
REMARK    2  A    between atoms: C1_1  and  C19_21 
REMARK    3  A    between atoms: C1_1  and  O7_27 
REMARK    4  A    between atoms: C2_2  and  O1_3 
REMARK    5  A    between atoms: O1_3  and  C3_4 
REMARK    6  A    between atoms: C3_4  and  C4_6 
REMARK    7  A    between atoms: C4_6  and  C5_7 
REMARK    8  A    between atoms: C5_7  and  C6_8 
REMARK    9  A    between atoms: C6_8  and  C7_9 
REMARK   10  A    between atoms: C7_9  and  C8_10 
REMARK   11  A    between atoms: C8_10  and  C9_11 
REMARK   12  A    between atoms: C9_11  and  C10_12 
REMARK   13  A    between atoms: C10_12  and  C11_13 
REMARK   14  A    between atoms: C11_13  and  C12_14 
REMARK   15  A    between atoms: C12_14  and  C13_15 
REMARK   16  A    between atoms: C13_15  and  C14_16 
REMARK   17  A    between atoms: C14_16  and  C15_17 
REMARK   18  A    between atoms: C15_17  and  C16_18 
REMARK   19  A    between atoms: C16_18  and  C17_19 
REMARK   20  A    between atoms: C19_21  and  O3_22 
REMARK   21  A    between atoms: O3_22  and  P1_23 
REMARK   22  A    between atoms: O7_27  and  C20_28 
REMARK   23  A    between atoms: C21_30  and  C22_31 
REMARK   24  A    between atoms: C22_31  and  C23_32 
REMARK   25  A    between atoms: C23_32  and  C24_33 
REMARK   26  A    between atoms: C24_33  and  C25_34 
REMARK   27  A    between atoms: C25_34  and  C26_35 
REMARK   28  A    between atoms: C26_35  and  C27_36 
REMARK   29  A    between atoms: C27_36  and  C28_37 
REMARK   30  A    between atoms: C28_37  and  C29_38 
REMARK   31  A    between atoms: C29_38  and  C30_39 
REMARK   32  A    between atoms: C30_39  and  C31_40 
REMARK   33  A    between atoms: C31_40  and  C32_41 
REMARK   34  A    between atoms: C32_41  and  C33_42 
REMARK   35  A    between atoms: C33_42  and  C34_43 
ROOT
ATOM      1  C1  non A   1      16.487   1.738  17.531  0.00  0.00     0.174 C 
ENDROOT
BRANCH   1   2
ATOM      2  C2  non A   1      15.194   1.936  16.717  0.00  0.00     0.213 C 
BRANCH   2   3
ATOM      3  O1  non A   1      15.518   2.712  15.598  0.00  0.00    -0.319 OA
BRANCH   3   4
ATOM      4  C3  non A   1      14.633   3.509  14.929  0.00  0.00     0.258 C 
ATOM      5  O2  non A   1      14.338   4.634  15.382  0.00  0.00    -0.265 OA
BRANCH   4   6
ATOM      6  C4  non A   1      14.046   2.989  13.652  0.00  0.00     0.111 C 
BRANCH   6   7
ATOM      7  C5  non A   1      14.589   3.727  12.442  0.00  0.00     0.010 C 
BRANCH   7   8
ATOM      8  C6  non A   1      13.513   3.886  11.382  0.00  0.00     0.000 C 
BRANCH   8   9
ATOM      9  C7  non A   1      13.989   3.361  10.044  0.00  0.00     0.000 C 
BRANCH   9  10
ATOM     10  C8  non A   1      14.607   4.431   9.170  0.00  0.00     0.000 C 
BRANCH  10  11
ATOM     11  C9  non A   1      13.607   4.694   8.029  0.00  0.00     0.000 C 
BRANCH  11  12
ATOM     12  C10 non A   1      12.806   3.481   7.683  0.00  0.00     0.000 C 
BRANCH  12  13
ATOM     13  C11 non A   1      13.614   2.377   7.139  0.00  0.00     0.000 C 
BRANCH  13  14
ATOM     14  C12 non A   1      13.092   1.025   6.969  0.00  0.00     0.000 C 
BRANCH  14  15
ATOM     15  C13 non A   1      12.445   0.303   8.076  0.00  0.00     0.000 C 
BRANCH  15  16
ATOM     16  C14 non A   1      10.954   0.014   7.799  0.00  0.00     0.000 C 
BRANCH  16  17
ATOM     17  C15 non A   1      10.200  -0.411   9.010  0.00  0.00     0.000 C 
BRANCH  17  18
ATOM     18  C16 non A   1       8.768   0.097   8.939  0.00  0.00    -0.000 C 
BRANCH  18  19
ATOM     19  C17 non A   1       8.613   1.102   7.821  0.00  0.00    -0.005 C 
ATOM     20  C18 non A   1       7.315   0.935   7.076  0.00  0.00     0.005 C 
ENDBRANCH  18  19
ENDBRANCH  17  18
ENDBRANCH  16  17
ENDBRANCH  15  16
ENDBRANCH  14  15
ENDBRANCH  13  14
ENDBRANCH  12  13
ENDBRANCH  11  12
ENDBRANCH  10  11
ENDBRANCH   9  10
ENDBRANCH   8   9
ENDBRANCH   7   8
ENDBRANCH   6   7
ENDBRANCH   4   6
ENDBRANCH   3   4
ENDBRANCH   2   3
ENDBRANCH   1   2
BRANCH   1  21
ATOM     21  C19 non A   1      17.552   1.373  16.559  0.00  0.00     0.216 C 
BRANCH  21  22
ATOM     22  O3  non A   1      17.417   0.135  15.959  0.00  0.00    -0.280 OA
BRANCH  22  23
ATOM     23  P1  non A   1      18.172   0.103  14.444  0.00  0.00     0.422 P 
ATOM     24  O4  non A   1      17.548   1.226  13.373  0.00  0.00    -0.617 OA
ATOM     25  O5  non A   1      18.156  -1.414  13.740  0.00  0.00    -0.617 OA
ATOM     26  O6  non A   1      19.637   0.461  14.700  0.00  0.00    -0.617 OA
ENDBRANCH  22  23
ENDBRANCH  21  22
ENDBRANCH   1  21
BRANCH   1  27
ATOM     27  O7  non A   1      16.275   0.782  18.562  0.00  0.00    -0.339 OA
BRANCH  27  28
ATOM     28  C20 non A   1      15.889   1.114  19.828  0.00  0.00     0.257 C 
ATOM     29  O8  non A   1      16.919   1.279  20.632  0.00  0.00    -0.191 OA
ATOM     30  C21 non A   1      14.593   1.309  20.437  0.00  0.00     0.078 C 
BRANCH  30  31
ATOM     31  C22 non A   1      13.327   1.191  19.728  0.00  0.00     0.006 C 
BRANCH  31  32
ATOM     32  C23 non A   1      12.256   0.291  20.121  0.00  0.00     0.000 C 
BRANCH  32  33
ATOM     33  C24 non A   1      12.004  -0.979  19.349  0.00  0.00     0.000 C 
BRANCH  33  34
ATOM     34  C25 non A   1      12.773  -2.112  19.947  0.00  0.00     0.000 C 
BRANCH  34  35
ATOM     35  C26 non A   1      12.473  -3.497  19.583  0.00  0.00     0.000 C 
BRANCH  35  36
ATOM     36  C27 non A   1      13.063  -4.655  20.275  0.00  0.00     0.000 C 
BRANCH  36  37
ATOM     37  C28 non A   1      12.215  -5.821  20.534  0.00  0.00     0.000 C 
BRANCH  37  38
ATOM     38  C29 non A   1      11.960  -6.641  19.252  0.00  0.00     0.000 C 
BRANCH  38  39
ATOM     39  C30 non A   1      13.183  -7.302  18.722  0.00  0.00     0.000 C 
BRANCH  39  40
ATOM     40  C31 non A   1      13.014  -8.789  18.832  0.00  0.00     0.000 C 
BRANCH  40  41
ATOM     41  C32 non A   1      13.136  -9.530  17.531  0.00  0.00     0.000 C 
BRANCH  41  42
ATOM     42  C33 non A   1      14.545  -9.225  17.008  0.00  0.00    -0.000 C 
BRANCH  42  43
ATOM     43  C34 non A   1      14.678  -9.640  15.567  0.00  0.00    -0.005 C 
ATOM     44  C35 non A   1      14.216  -8.488  14.685  0.00  0.00     0.005 C 
ENDBRANCH  42  43
ENDBRANCH  41  42
ENDBRANCH  40  41
ENDBRANCH  39  40
ENDBRANCH  38  39
ENDBRANCH  37  38
ENDBRANCH  36  37
ENDBRANCH  35  36
ENDBRANCH  34  35
ENDBRANCH  33  34
ENDBRANCH  32  33
ENDBRANCH  31  32
ENDBRANCH  30  31
ENDBRANCH  27  28
ENDBRANCH   1  27
TORSDOF 35
ENDMDL
MODEL 7
REMARK VINA RESULT:      -2.4     21.767     24.429
REMARK WARNING: 32 MAX_TORS EXCEEDED!!!
REMARK  35 active torsions:
REMARK  status: ('A' for Active; 'I' for Inactive)
REMARK    1  A    between atoms: C1_1  and  C2_2 
REMARK    2  A    between atoms: C1_1  and  C19_21 
REMARK    3  A    between atoms: C1_1  and  O7_27 
REMARK    4  A    between atoms: C2_2  and  O1_3 
REMARK    5  A    between atoms: O1_3  and  C3_4 
REMARK    6  A    between atoms: C3_4  and  C4_6 
REMARK    7  A    between atoms: C4_6  and  C5_7 
REMARK    8  A    between atoms: C5_7  and  C6_8 
REMARK    9  A    between atoms: C6_8  and  C7_9 
REMARK   10  A    between atoms: C7_9  and  C8_10 
REMARK   11  A    between atoms: C8_10  and  C9_11 
REMARK   12  A    between atoms: C9_11  and  C10_12 
REMARK   13  A    between atoms: C10_12  and  C11_13 
REMARK   14  A    between atoms: C11_13  and  C12_14 
REMARK   15  A    between atoms: C12_14  and  C13_15 
REMARK   16  A    between atoms: C13_15  and  C14_16 
REMARK   17  A    between atoms: C14_16  and  C15_17 
REMARK   18  A    between atoms: C15_17  and  C16_18 
REMARK   19  A    between atoms: C16_18  and  C17_19 
REMARK   20  A    between atoms: C19_21  and  O3_22 
REMARK   21  A    between atoms: O3_22  and  P1_23 
REMARK   22  A    between atoms: O7_27  and  C20_28 
REMARK   23  A    between atoms: C21_30  and  C22_31 
REMARK   24  A    between atoms: C22_31  and  C23_32 
REMARK   25  A    between atoms: C23_32  and  C24_33 
REMARK   26  A    between atoms: C24_33  and  C25_34 
REMARK   27  A    between atoms: C25_34  and  C26_35 
REMARK   28  A    between atoms: C26_35  and  C27_36 
REMARK   29  A    between atoms: C27_36  and  C28_37 
REMARK   30  A    between atoms: C28_37  and  C29_38 
REMARK   31  A    between atoms: C29_38  and  C30_39 
REMARK   32  A    between atoms: C30_39  and  C31_40 
REMARK   33  A    between atoms: C31_40  and  C32_41 
REMARK   34  A    between atoms: C32_41  and  C33_42 
REMARK   35  A    between atoms: C33_42  and  C34_43 
ROOT
ATOM      1  C1  non A   1      -9.527   6.481  13.982  0.00  0.00     0.174 C 
ENDROOT
BRANCH   1   2
ATOM      2  C2  non A   1      -8.603   5.249  13.976  0.00  0.00     0.213 C 
BRANCH   2   3
ATOM      3  O1  non A   1      -8.414   4.860  15.308  0.00  0.00    -0.319 OA
BRANCH   3   4
ATOM      4  C3  non A   1      -8.969   3.747  15.873  0.00  0.00     0.258 C 
ATOM      5  O2  non A   1      -8.724   3.460  17.063  0.00  0.00    -0.265 OA
BRANCH   4   6
ATOM      6  C4  non A   1      -9.870   2.904  15.023  0.00  0.00     0.111 C 
BRANCH   6   7
ATOM      7  C5  non A   1     -11.250   2.758  15.638  0.00  0.00     0.010 C 
BRANCH   7   8
ATOM      8  C6  non A   1     -12.125   1.854  14.788  0.00  0.00     0.000 C 
BRANCH   8   9
ATOM      9  C7  non A   1     -12.554   2.554  13.517  0.00  0.00     0.000 C 
BRANCH   9  10
ATOM     10  C8  non A   1     -13.750   3.462  13.711  0.00  0.00     0.000 C 
BRANCH  10  11
ATOM     11  C9  non A   1     -14.573   3.385  12.412  0.00  0.00     0.000 C 
BRANCH  11  12
ATOM     12  C10 non A   1     -14.042   2.362  11.462  0.00  0.00     0.000 C 
BRANCH  12  13
ATOM     13  C11 non A   1     -15.028   1.330  11.097  0.00  0.00     0.000 C 
BRANCH  13  14
ATOM     14  C12 non A   1     -16.302   1.646  10.459  0.00  0.00     0.000 C 
BRANCH  14  15
ATOM     15  C13 non A   1     -16.402   2.654   9.391  0.00  0.00     0.000 C 
BRANCH  15  16
ATOM     16  C14 non A   1     -15.413   2.387   8.236  0.00  0.00     0.000 C 
BRANCH  16  17
ATOM     17  C15 non A   1     -14.673   3.603   7.800  0.00  0.00     0.000 C 
BRANCH  17  18
ATOM     18  C16 non A   1     -15.369   4.236   6.605  0.00  0.00    -0.000 C 
BRANCH  18  19
ATOM     19  C17 non A   1     -15.157   5.732   6.594  0.00  0.00    -0.005 C 
ATOM     20  C18 non A   1     -14.208   6.184   7.672  0.00  0.00     0.005 C 
ENDBRANCH  18  19
ENDBRANCH  17  18
ENDBRANCH  16  17
ENDBRANCH  15  16
ENDBRANCH  14  15
ENDBRANCH  13  14
ENDBRANCH  12  13
ENDBRANCH  11  12
ENDBRANCH  10  11
ENDBRANCH   9  10
ENDBRANCH   8   9
ENDBRANCH   7   8
ENDBRANCH   6   7
ENDBRANCH   4   6
ENDBRANCH   3   4
ENDBRANCH   2   3
ENDBRANCH   1   2
BRANCH   1  21
ATOM     21  C19 non A   1      -9.527   7.020  12.595  0.00  0.00     0.216 C 
BRANCH  21  22
ATOM     22  O3  non A   1     -10.056   6.187  11.628  0.00  0.00    -0.280 OA
BRANCH  22  23
ATOM     23  P1  non A   1     -11.431   6.869  10.915  0.00  0.00     0.422 P 
ATOM     24  O4  non A   1     -11.786   8.396  11.496  0.00  0.00    -0.617 OA
ATOM     25  O5  non A   1     -12.783   5.892  11.041  0.00  0.00    -0.617 OA
ATOM     26  O6  non A   1     -11.110   6.996   9.425  0.00  0.00    -0.617 OA
ENDBRANCH  22  23
ENDBRANCH  21  22
ENDBRANCH   1  21
BRANCH   1  27
ATOM     27  O7  non A   1      -9.104   7.405  14.976  0.00  0.00    -0.339 OA
BRANCH  27  28
ATOM     28  C20 non A   1      -8.370   8.522  14.701  0.00  0.00     0.257 C 
ATOM     29  O8  non A   1      -9.131   9.575  14.489  0.00  0.00    -0.191 OA
ATOM     30  C21 non A   1      -6.947   8.758  14.600  0.00  0.00     0.078 C 
BRANCH  30  31
ATOM     31  C22 non A   1      -5.930   7.738  14.811  0.00  0.00     0.006 C 
BRANCH  31  32
ATOM     32  C23 non A   1      -4.769   7.560  13.956  0.00  0.00     0.000 C 
BRANCH  32  33
ATOM     33  C24 non A   1      -3.612   8.523  14.027  0.00  0.00     0.000 C 
BRANCH  33  34
ATOM     34  C25 non A   1      -2.408   7.847  14.600  0.00  0.00     0.000 C 
BRANCH  34  35
ATOM     35  C26 non A   1      -2.124   6.443  14.302  0.00  0.00     0.000 C 
BRANCH  35  36
ATOM     36  C27 non A   1      -1.159   6.021  13.273  0.00  0.00     0.000 C 
BRANCH  36  37
ATOM     37  C28 non A   1      -0.708   4.626  13.268  0.00  0.00     0.000 C 
BRANCH  37  38
ATOM     38  C29 non A   1      -1.598   3.739  12.373  0.00  0.00     0.000 C 
BRANCH  38  39
ATOM     39  C30 non A   1      -2.135   2.542  13.077  0.00  0.00     0.000 C 
BRANCH  39  40
ATOM     40  C31 non A   1      -2.948   2.998  14.251  0.00  0.00     0.000 C 
BRANCH  40  41
ATOM     41  C32 non A   1      -2.733   2.203  15.507  0.00  0.00     0.000 C 
BRANCH  41  42
ATOM     42  C33 non A   1      -2.509   3.235  16.621  0.00  0.00    -0.000 C 
BRANCH  42  43
ATOM     43  C34 non A   1      -3.501   3.036  17.737  0.00  0.00    -0.005 C 
ATOM     44  C35 non A   1      -4.401   4.262  17.810  0.00  0.00     0.005 C 
ENDBRANCH  42  43
ENDBRANCH  41  42
ENDBRANCH  40  41
ENDBRANCH  39  40
ENDBRANCH  38  39
ENDBRANCH  37  38
ENDBRANCH  36  37
ENDBRANCH  35  36
ENDBRANCH  34  35
ENDBRANCH  33  34
ENDBRANCH  32  33
ENDBRANCH  31  32
ENDBRANCH  30  31
ENDBRANCH  27  28
ENDBRANCH   1  27
TORSDOF 35
ENDMDL
MODEL 8
REMARK VINA RESULT:      -2.4     30.830     34.048
REMARK WARNING: 32 MAX_TORS EXCEEDED!!!
REMARK  35 active torsions:
REMARK  status: ('A' for Active; 'I' for Inactive)
REMARK    1  A    between atoms: C1_1  and  C2_2 
REMARK    2  A    between atoms: C1_1  and  C19_21 
REMARK    3  A    between atoms: C1_1  and  O7_27 
REMARK    4  A    between atoms: C2_2  and  O1_3 
REMARK    5  A    between atoms: O1_3  and  C3_4 
REMARK    6  A    between atoms: C3_4  and  C4_6 
REMARK    7  A    between atoms: C4_6  and  C5_7 
REMARK    8  A    between atoms: C5_7  and  C6_8 
REMARK    9  A    between atoms: C6_8  and  C7_9 
REMARK   10  A    between atoms: C7_9  and  C8_10 
REMARK   11  A    between atoms: C8_10  and  C9_11 
REMARK   12  A    between atoms: C9_11  and  C10_12 
REMARK   13  A    between atoms: C10_12  and  C11_13 
REMARK   14  A    between atoms: C11_13  and  C12_14 
REMARK   15  A    between atoms: C12_14  and  C13_15 
REMARK   16  A    between atoms: C13_15  and  C14_16 
REMARK   17  A    between atoms: C14_16  and  C15_17 
REMARK   18  A    between atoms: C15_17  and  C16_18 
REMARK   19  A    between atoms: C16_18  and  C17_19 
REMARK   20  A    between atoms: C19_21  and  O3_22 
REMARK   21  A    between atoms: O3_22  and  P1_23 
REMARK   22  A    between atoms: O7_27  and  C20_28 
REMARK   23  A    between atoms: C21_30  and  C22_31 
REMARK   24  A    between atoms: C22_31  and  C23_32 
REMARK   25  A    between atoms: C23_32  and  C24_33 
REMARK   26  A    between atoms: C24_33  and  C25_34 
REMARK   27  A    between atoms: C25_34  and  C26_35 
REMARK   28  A    between atoms: C26_35  and  C27_36 
REMARK   29  A    between atoms: C27_36  and  C28_37 
REMARK   30  A    between atoms: C28_37  and  C29_38 
REMARK   31  A    between atoms: C29_38  and  C30_39 
REMARK   32  A    between atoms: C30_39  and  C31_40 
REMARK   33  A    between atoms: C31_40  and  C32_41 
REMARK   34  A    between atoms: C32_41  and  C33_42 
REMARK   35  A    between atoms: C33_42  and  C34_43 
ROOT
ATOM      1  C1  non A   1      10.837  -8.357  17.262  0.00  0.00     0.174 C 
ENDROOT
BRANCH   1   2
ATOM      2  C2  non A   1      12.303  -7.943  17.035  0.00  0.00     0.213 C 
BRANCH   2   3
ATOM      3  O1  non A   1      12.554  -6.828  17.845  0.00  0.00    -0.319 OA
BRANCH   3   4
ATOM      4  C3  non A   1      13.799  -6.408  18.215  0.00  0.00     0.258 C 
ATOM      5  O2  non A   1      14.598  -7.206  18.747  0.00  0.00    -0.265 OA
BRANCH   4   6
ATOM      6  C4  non A   1      14.163  -4.977  17.955  0.00  0.00     0.111 C 
BRANCH   6   7
ATOM      7  C5  non A   1      14.110  -4.642  16.476  0.00  0.00     0.010 C 
BRANCH   7   8
ATOM      8  C6  non A   1      14.932  -3.401  16.176  0.00  0.00     0.000 C 
BRANCH   8   9
ATOM      9  C7  non A   1      14.515  -2.248  17.064  0.00  0.00     0.000 C 
BRANCH   9  10
ATOM     10  C8  non A   1      15.664  -1.335  17.434  0.00  0.00     0.000 C 
BRANCH  10  11
ATOM     11  C9  non A   1      15.882  -0.398  16.232  0.00  0.00     0.000 C 
BRANCH  11  12
ATOM     12  C10 non A   1      14.799   0.622  16.102  0.00  0.00     0.000 C 
BRANCH  12  13
ATOM     13  C11 non A   1      15.204   1.971  16.533  0.00  0.00     0.000 C 
BRANCH  13  14
ATOM     14  C12 non A   1      14.756   3.184  15.858  0.00  0.00     0.000 C 
BRANCH  14  15
ATOM     15  C13 non A   1      14.992   3.401  14.422  0.00  0.00     0.000 C 
BRANCH  15  16
ATOM     16  C14 non A   1      14.102   4.520  13.841  0.00  0.00     0.000 C 
BRANCH  16  17
ATOM     17  C15 non A   1      13.539   4.192  12.503  0.00  0.00     0.000 C 
BRANCH  17  18
ATOM     18  C16 non A   1      14.463   3.231  11.770  0.00  0.00    -0.000 C 
BRANCH  18  19
ATOM     19  C17 non A   1      13.667   2.153  11.072  0.00  0.00    -0.005 C 
ATOM     20  C18 non A   1      12.373   2.672  10.503  0.00  0.00     0.005 C 
ENDBRANCH  18  19
ENDBRANCH  17  18
ENDBRANCH  16  17
ENDBRANCH  15  16
ENDBRANCH  14  15
ENDBRANCH  13  14
ENDBRANCH  12  13
ENDBRANCH  11  12
ENDBRANCH  10  11
ENDBRANCH   9  10
ENDBRANCH   8   9
ENDBRANCH   7   8
ENDBRANCH   6   7
ENDBRANCH   4   6
ENDBRANCH   3   4
ENDBRANCH   2   3
ENDBRANCH   1   2
BRANCH   1  21
ATOM     21  C19 non A   1      10.788  -9.052  18.576  0.00  0.00     0.216 C 
BRANCH  21  22
ATOM     22  O3  non A   1       9.886  -8.541  19.491  0.00  0.00    -0.280 OA
BRANCH  22  23
ATOM     23  P1  non A   1      10.681  -7.853  20.818  0.00  0.00     0.422 P 
ATOM     24  O4  non A   1       9.993  -8.267  22.285  0.00  0.00    -0.617 OA
ATOM     25  O5  non A   1      10.812  -6.189  20.709  0.00  0.00    -0.617 OA
ATOM     26  O6  non A   1      12.103  -8.416  20.790  0.00  0.00    -0.617 OA
ENDBRANCH  22  23
ENDBRANCH  21  22
ENDBRANCH   1  21
BRANCH   1  27
ATOM     27  O7  non A   1      10.372  -9.134  16.165  0.00  0.00    -0.339 OA
BRANCH  27  28
ATOM     28  C20 non A   1       9.061  -9.207  15.797  0.00  0.00     0.257 C 
ATOM     29  O8  non A   1       8.409  -8.094  16.063  0.00  0.00    -0.191 OA
ATOM     30  C21 non A   1       8.272 -10.253  15.186  0.00  0.00     0.078 C 
BRANCH  30  31
ATOM     31  C22 non A   1       8.796 -11.555  14.797  0.00  0.00     0.006 C 
BRANCH  31  32
ATOM     32  C23 non A   1       9.528 -11.802  13.567  0.00  0.00     0.000 C 
BRANCH  32  33
ATOM     33  C24 non A   1      10.426 -13.005  13.439  0.00  0.00     0.000 C 
BRANCH  33  34
ATOM     34  C25 non A   1       9.989 -13.859  12.292  0.00  0.00     0.000 C 
BRANCH  34  35
ATOM     35  C26 non A   1       8.580 -13.934  11.908  0.00  0.00     0.000 C 
BRANCH  35  36
ATOM     36  C27 non A   1       8.094 -13.579  10.564  0.00  0.00     0.000 C 
BRANCH  36  37
ATOM     37  C28 non A   1       6.738 -13.039  10.431  0.00  0.00     0.000 C 
BRANCH  37  38
ATOM     38  C29 non A   1       6.712 -11.506  10.597  0.00  0.00     0.000 C 
BRANCH  38  39
ATOM     39  C30 non A   1       6.299 -11.066  11.958  0.00  0.00     0.000 C 
BRANCH  39  40
ATOM     40  C31 non A   1       5.198 -11.964  12.441  0.00  0.00     0.000 C 
BRANCH  40  41
ATOM     41  C32 non A   1       5.401 -12.512  13.824  0.00  0.00     0.000 C 
BRANCH  41  42
ATOM     42  C33 non A   1       5.176 -14.025  13.710  0.00  0.00    -0.000 C 
BRANCH  42  43
ATOM     43  C34 non A   1       4.118 -14.330  12.684  0.00  0.00    -0.005 C 
ATOM     44  C35 non A   1       4.526 -15.585  11.924  0.00  0.00     0.005 C 
ENDBRANCH  42  43
ENDBRANCH  41  42
ENDBRANCH  40  41
ENDBRANCH  39  40
ENDBRANCH  38  39
ENDBRANCH  37  38
ENDBRANCH  36  37
ENDBRANCH  35  36
ENDBRANCH  34  35
ENDBRANCH  33  34
ENDBRANCH  32  33
ENDBRANCH  31  32
ENDBRANCH  30  31
ENDBRANCH  27  28
ENDBRANCH   1  27
TORSDOF 35
ENDMDL
MODEL 9
REMARK VINA RESULT:      -2.3     22.911     26.269
REMARK WARNING: 32 MAX_TORS EXCEEDED!!!
REMARK  35 active torsions:
REMARK  status: ('A' for Active; 'I' for Inactive)
REMARK    1  A    between atoms: C1_1  and  C2_2 
REMARK    2  A    between atoms: C1_1  and  C19_21 
REMARK    3  A    between atoms: C1_1  and  O7_27 
REMARK    4  A    between atoms: C2_2  and  O1_3 
REMARK    5  A    between atoms: O1_3  and  C3_4 
REMARK    6  A    between atoms: C3_4  and  C4_6 
REMARK    7  A    between atoms: C4_6  and  C5_7 
REMARK    8  A    between atoms: C5_7  and  C6_8 
REMARK    9  A    between atoms: C6_8  and  C7_9 
REMARK   10  A    between atoms: C7_9  and  C8_10 
REMARK   11  A    between atoms: C8_10  and  C9_11 
REMARK   12  A    between atoms: C9_11  and  C10_12 
REMARK   13  A    between atoms: C10_12  and  C11_13 
REMARK   14  A    between atoms: C11_13  and  C12_14 
REMARK   15  A    between atoms: C12_14  and  C13_15 
REMARK   16  A    between atoms: C13_15  and  C14_16 
REMARK   17  A    between atoms: C14_16  and  C15_17 
REMARK   18  A    between atoms: C15_17  and  C16_18 
REMARK   19  A    between atoms: C16_18  and  C17_19 
REMARK   20  A    between atoms: C19_21  and  O3_22 
REMARK   21  A    between atoms: O3_22  and  P1_23 
REMARK   22  A    between atoms: O7_27  and  C20_28 
REMARK   23  A    between atoms: C21_30  and  C22_31 
REMARK   24  A    between atoms: C22_31  and  C23_32 
REMARK   25  A    between atoms: C23_32  and  C24_33 
REMARK   26  A    between atoms: C24_33  and  C25_34 
REMARK   27  A    between atoms: C25_34  and  C26_35 
REMARK   28  A    between atoms: C26_35  and  C27_36 
REMARK   29  A    between atoms: C27_36  and  C28_37 
REMARK   30  A    between atoms: C28_37  and  C29_38 
REMARK   31  A    between atoms: C29_38  and  C30_39 
REMARK   32  A    between atoms: C30_39  and  C31_40 
REMARK   33  A    between atoms: C31_40  and  C32_41 
REMARK   34  A    between atoms: C32_41  and  C33_42 
REMARK   35  A    between atoms: C33_42  and  C34_43 
ROOT
ATOM      1  C1  non A   1      -9.771   5.679  13.402  0.00  0.00     0.174 C 
ENDROOT
BRANCH   1   2
ATOM      2  C2  non A   1     -11.106   5.182  13.987  0.00  0.00     0.213 C 
BRANCH   2   3
ATOM      3  O1  non A   1     -10.849   3.979  14.654  0.00  0.00    -0.319 OA
BRANCH   3   4
ATOM      4  C3  non A   1     -11.647   2.872  14.585  0.00  0.00     0.258 C 
ATOM      5  O2  non A   1     -12.177   2.549  13.502  0.00  0.00    -0.265 OA
BRANCH   4   6
ATOM      6  C4  non A   1     -11.852   2.074  15.837  0.00  0.00     0.111 C 
BRANCH   6   7
ATOM      7  C5  non A   1     -13.009   2.608  16.661  0.00  0.00     0.010 C 
BRANCH   7   8
ATOM      8  C6  non A   1     -12.608   2.756  18.119  0.00  0.00     0.000 C 
BRANCH   8   9
ATOM      9  C7  non A   1     -11.163   3.187  18.242  0.00  0.00     0.000 C 
BRANCH   9  10
ATOM     10  C8  non A   1     -10.415   2.457  19.337  0.00  0.00     0.000 C 
BRANCH  10  11
ATOM     11  C9  non A   1     -11.035   1.051  19.427  0.00  0.00     0.000 C 
BRANCH  11  12
ATOM     12  C10 non A   1     -10.229   0.025  18.699  0.00  0.00     0.000 C 
BRANCH  12  13
ATOM     13  C11 non A   1      -9.453  -0.855  19.590  0.00  0.00     0.000 C 
BRANCH  13  14
ATOM     14  C12 non A   1      -8.238  -1.540  19.161  0.00  0.00     0.000 C 
BRANCH  14  15
ATOM     15  C13 non A   1      -7.838  -1.588  17.746  0.00  0.00     0.000 C 
BRANCH  15  16
ATOM     16  C14 non A   1      -6.480  -0.899  17.494  0.00  0.00     0.000 C 
BRANCH  16  17
ATOM     17  C15 non A   1      -6.553   0.203  16.496  0.00  0.00     0.000 C 
BRANCH  17  18
ATOM     18  C16 non A   1      -7.081   1.469  17.153  0.00  0.00    -0.000 C 
BRANCH  18  19
ATOM     19  C17 non A   1      -8.201   2.068  16.336  0.00  0.00    -0.005 C 
ATOM     20  C18 non A   1      -7.789   2.346  14.915  0.00  0.00     0.005 C 
ENDBRANCH  18  19
ENDBRANCH  17  18
ENDBRANCH  16  17
ENDBRANCH  15  16
ENDBRANCH  14  15
ENDBRANCH  13  14
ENDBRANCH  12  13
ENDBRANCH  11  12
ENDBRANCH  10  11
ENDBRANCH   9  10
ENDBRANCH   8   9
ENDBRANCH   7   8
ENDBRANCH   6   7
ENDBRANCH   4   6
ENDBRANCH   3   4
ENDBRANCH   2   3
ENDBRANCH   1   2
BRANCH   1  21
ATOM     21  C19 non A   1      -8.904   6.034  14.558  0.00  0.00     0.216 C 
BRANCH  21  22
ATOM     22  O3  non A   1      -7.544   6.021  14.314  0.00  0.00    -0.280 OA
BRANCH  22  23
ATOM     23  P1  non A   1      -6.854   7.539  14.606  0.00  0.00     0.422 P 
ATOM     24  O4  non A   1      -6.500   7.802  16.220  0.00  0.00    -0.617 OA
ATOM     25  O5  non A   1      -7.784   8.801  14.022  0.00  0.00    -0.617 OA
ATOM     26  O6  non A   1      -5.538   7.557  13.827  0.00  0.00    -0.617 OA
ENDBRANCH  22  23
ENDBRANCH  21  22
ENDBRANCH   1  21
BRANCH   1  27
ATOM     27  O7  non A   1     -10.002   6.744  12.489  0.00  0.00    -0.339 OA
BRANCH  27  28
ATOM     28  C20 non A   1      -9.643   6.699  11.174  0.00  0.00     0.257 C 
ATOM     29  O8  non A   1      -8.344   6.545  11.020  0.00  0.00    -0.191 OA
ATOM     30  C21 non A   1     -10.403   6.790   9.947  0.00  0.00     0.078 C 
BRANCH  30  31
ATOM     31  C22 non A   1     -11.849   6.947   9.888  0.00  0.00     0.006 C 
BRANCH  31  32
ATOM     32  C23 non A   1     -12.794   5.977  10.415  0.00  0.00     0.000 C 
BRANCH  32  33
ATOM     33  C24 non A   1     -12.384   4.540  10.611  0.00  0.00     0.000 C 
BRANCH  33  34
ATOM     34  C25 non A   1     -13.334   3.628   9.903  0.00  0.00     0.000 C 
BRANCH  34  35
ATOM     35  C26 non A   1     -14.154   4.115   8.794  0.00  0.00     0.000 C 
BRANCH  35  36
ATOM     36  C27 non A   1     -15.624   4.181   8.850  0.00  0.00     0.000 C 
BRANCH  36  37
ATOM     37  C28 non A   1     -16.283   3.983  10.144  0.00  0.00     0.000 C 
BRANCH  37  38
ATOM     38  C29 non A   1     -16.722   5.321  10.775  0.00  0.00     0.000 C 
BRANCH  38  39
ATOM     39  C30 non A   1     -16.852   6.425   9.786  0.00  0.00     0.000 C 
BRANCH  39  40
ATOM     40  C31 non A   1     -16.168   7.644  10.332  0.00  0.00     0.000 C 
BRANCH  40  41
ATOM     41  C32 non A   1     -16.244   8.853   9.444  0.00  0.00     0.000 C 
BRANCH  41  42
ATOM     42  C33 non A   1     -14.791   9.263   9.172  0.00  0.00    -0.000 C 
BRANCH  42  43
ATOM     43  C34 non A   1     -14.311   8.684   7.867  0.00  0.00    -0.005 C 
ATOM     44  C35 non A   1     -13.444   9.722   7.167  0.00  0.00     0.005 C 
ENDBRANCH  42  43
ENDBRANCH  41  42
ENDBRANCH  40  41
ENDBRANCH  39  40
ENDBRANCH  38  39
ENDBRANCH  37  38
ENDBRANCH  36  37
ENDBRANCH  35  36
ENDBRANCH  34  35
ENDBRANCH  33  34
ENDBRANCH  32  33
ENDBRANCH  31  32
ENDBRANCH  30  31
ENDBRANCH  27  28
ENDBRANCH   1  27
TORSDOF 35
ENDMDL
