MODEL 1
REMARK VINA RESULT:      -3.0      0.000      0.000
REMARK  31 active torsions:
REMARK  status: ('A' for Active; 'I' for Inactive)
REMARK    1  A    between atoms: C2_2  and  C3_3 
REMARK    2  A    between atoms: C3_3  and  C4_4 
REMARK    3  A    between atoms: C4_4  and  C5_5 
REMARK    4  A    between atoms: C5_5  and  C6_6 
REMARK    5  A    between atoms: C6_6  and  C7_7 
REMARK    6  A    between atoms: C7_7  and  C8_8 
REMARK    7  A    between atoms: C8_8  and  C9_9 
REMARK    8  A    between atoms: C9_9  and  C10_10 
REMARK    9  A    between atoms: C10_10  and  C11_11 
REMARK   10  A    between atoms: C11_11  and  C12_12 
REMARK   11  A    between atoms: C12_12  and  O2_14 
REMARK   12  A    between atoms: O2_14  and  C13_15 
REMARK   13  A    between atoms: C13_15  and  C14_16 
REMARK   14  A    between atoms: C14_16  and  C15_17 
REMARK   15  A    between atoms: C14_16  and  O7_23 
REMARK   16  A    between atoms: C15_17  and  O3_18 
REMARK   17  A    between atoms: O3_18  and  P1_19 
REMARK   18  A    between atoms: O7_23  and  C16_24 
REMARK   19  A    between atoms: C16_24  and  C17_26 
REMARK   20  A    between atoms: C17_26  and  C18_27 
REMARK   21  A    between atoms: C18_27  and  C19_28 
REMARK   22  A    between atoms: C19_28  and  C20_29 
REMARK   23  A    between atoms: C20_29  and  C21_30 
REMARK   24  A    between atoms: C21_30  and  C22_31 
REMARK   25  A    between atoms: C22_31  and  C23_32 
REMARK   26  A    between atoms: C23_32  and  C24_33 
REMARK   27  A    between atoms: C25_34  and  C26_35 
REMARK   28  A    between atoms: C26_35  and  C27_36 
REMARK   29  A    between atoms: C27_36  and  C28_37 
REMARK   30  A    between atoms: C28_37  and  C29_38 
REMARK   31  A    between atoms: C29_38  and  C30_39 
ROOT
ATOM      1  C14 non A   1      -4.698  19.518  -4.716  0.00  0.00     0.180 C 
ENDROOT
BRANCH   1   2
ATOM      2  C13 non A   1      -3.258  20.060  -4.776  0.00  0.00     0.213 C 
BRANCH   2   3
ATOM      3  O2  non A   1      -2.887  19.961  -6.137  0.00  0.00    -0.319 OA
BRANCH   3   4
ATOM      4  C12 non A   1      -1.639  19.412  -6.520  0.00  0.00     0.258 C 
ATOM      5  O1  non A   1      -1.267  19.804  -7.634  0.00  0.00    -0.265 OA
BRANCH   4   6
ATOM      6  C11 non A   1      -0.915  18.502  -5.664  0.00  0.00     0.111 C 
BRANCH   6   7
ATOM      7  C10 non A   1       0.542  18.458  -5.600  0.00  0.00     0.010 C 
BRANCH   7   8
ATOM      8  C9  non A   1       1.267  17.451  -4.828  0.00  0.00     0.000 C 
BRANCH   8   9
ATOM      9  C8  non A   1       0.624  16.216  -4.349  0.00  0.00     0.000 C 
BRANCH   9  10
ATOM     10  C7  non A   1       1.648  15.220  -3.836  0.00  0.00     0.000 C 
BRANCH  10  11
ATOM     11  C6  non A   1       1.217  14.579  -2.570  0.00  0.00     0.000 C 
BRANCH  11  12
ATOM     12  C5  non A   1       2.279  14.766  -1.485  0.00  0.00     0.000 C 
BRANCH  12  13
ATOM     13  C4  non A   1       2.637  16.184  -1.288  0.00  0.00     0.000 C 
BRANCH  13  14
ATOM     14  C3  non A   1       4.057  16.512  -1.501  0.00  0.00    -0.000 C 
BRANCH  14  15
ATOM     15  C2  non A   1       4.482  17.383  -2.603  0.00  0.00    -0.005 C 
ATOM     16  C1  non A   1       3.833  18.718  -2.685  0.00  0.00     0.005 C 
ENDBRANCH  14  15
ENDBRANCH  13  14
ENDBRANCH  12  13
ENDBRANCH  11  12
ENDBRANCH  10  11
ENDBRANCH   9  10
ENDBRANCH   8   9
ENDBRANCH   7   8
ENDBRANCH   6   7
ENDBRANCH   4   6
ENDBRANCH   3   4
ENDBRANCH   2   3
ENDBRANCH   1   2
BRANCH   1  17
ATOM     17  C15 non A   1      -5.516  20.519  -4.000  0.00  0.00     0.217 C 
BRANCH  17  18
ATOM     18  O3  non A   1      -6.340  21.265  -4.847  0.00  0.00    -0.280 OA
BRANCH  18  19
ATOM     19  P1  non A   1      -7.177  22.454  -3.976  0.00  0.00     0.422 P 
ATOM     20  O4  non A   1      -6.119  23.772  -3.796  0.00  0.00    -0.617 OA
ATOM     21  O5  non A   1      -8.600  22.932  -4.724  0.00  0.00    -0.617 OA
ATOM     22  O6  non A   1      -7.489  21.889  -2.613  0.00  0.00    -0.617 OA
ENDBRANCH  18  19
ENDBRANCH  17  18
ENDBRANCH   1  17
BRANCH   1  23
ATOM     23  O7  non A   1      -4.662  18.227  -4.179  0.00  0.00    -0.312 OA
BRANCH  23  24
ATOM     24  C16 non A   1      -4.978  17.086  -4.903  0.00  0.00     0.259 C 
ATOM     25  O8  non A   1      -6.229  16.817  -4.898  0.00  0.00    -0.265 OA
BRANCH  24  26
ATOM     26  C17 non A   1      -4.046  16.223  -5.625  0.00  0.00     0.111 C 
BRANCH  26  27
ATOM     27  C18 non A   1      -3.015  15.535  -4.801  0.00  0.00     0.010 C 
BRANCH  27  28
ATOM     28  C19 non A   1      -3.597  14.482  -3.907  0.00  0.00     0.000 C 
BRANCH  28  29
ATOM     29  C20 non A   1      -4.187  13.346  -4.695  0.00  0.00     0.000 C 
BRANCH  29  30
ATOM     30  C21 non A   1      -3.135  12.461  -5.344  0.00  0.00     0.000 C 
BRANCH  30  31
ATOM     31  C22 non A   1      -1.998  12.193  -4.431  0.00  0.00     0.004 C 
BRANCH  31  32
ATOM     32  C23 non A   1      -0.657  12.563  -5.005  0.00  0.00     0.027 C 
BRANCH  32  33
ATOM     33  C24 non A   1      -0.586  12.203  -6.413  0.00  0.00    -0.031 C 
ATOM     34  C25 non A   1       0.235  12.746  -7.270  0.00  0.00    -0.031 C 
BRANCH  34  35
ATOM     35  C26 non A   1       1.245  13.780  -7.108  0.00  0.00     0.027 C 
BRANCH  35  36
ATOM     36  C27 non A   1       2.510  13.453  -7.816  0.00  0.00     0.004 C 
BRANCH  36  37
ATOM     37  C28 non A   1       3.417  12.443  -7.241  0.00  0.00     0.000 C 
BRANCH  37  38
ATOM     38  C29 non A   1       3.506  12.642  -5.714  0.00  0.00    -0.000 C 
BRANCH  38  39
ATOM     39  C30 non A   1       4.080  11.441  -5.023  0.00  0.00    -0.005 C 
ATOM     40  C31 non A   1       4.992  10.732  -6.031  0.00  0.00     0.005 C 
ENDBRANCH  38  39
ENDBRANCH  37  38
ENDBRANCH  36  37
ENDBRANCH  35  36
ENDBRANCH  34  35
ENDBRANCH  32  33
ENDBRANCH  31  32
ENDBRANCH  30  31
ENDBRANCH  29  30
ENDBRANCH  28  29
ENDBRANCH  27  28
ENDBRANCH  26  27
ENDBRANCH  24  26
ENDBRANCH  23  24
ENDBRANCH   1  23
TORSDOF 31
ENDMDL
MODEL 2
REMARK VINA RESULT:      -2.8     25.015     28.879
REMARK  31 active torsions:
REMARK  status: ('A' for Active; 'I' for Inactive)
REMARK    1  A    between atoms: C2_2  and  C3_3 
REMARK    2  A    between atoms: C3_3  and  C4_4 
REMARK    3  A    between atoms: C4_4  and  C5_5 
REMARK    4  A    between atoms: C5_5  and  C6_6 
REMARK    5  A    between atoms: C6_6  and  C7_7 
REMARK    6  A    between atoms: C7_7  and  C8_8 
REMARK    7  A    between atoms: C8_8  and  C9_9 
REMARK    8  A    between atoms: C9_9  and  C10_10 
REMARK    9  A    between atoms: C10_10  and  C11_11 
REMARK   10  A    between atoms: C11_11  and  C12_12 
REMARK   11  A    between atoms: C12_12  and  O2_14 
REMARK   12  A    between atoms: O2_14  and  C13_15 
REMARK   13  A    between atoms: C13_15  and  C14_16 
REMARK   14  A    between atoms: C14_16  and  C15_17 
REMARK   15  A    between atoms: C14_16  and  O7_23 
REMARK   16  A    between atoms: C15_17  and  O3_18 
REMARK   17  A    between atoms: O3_18  and  P1_19 
REMARK   18  A    between atoms: O7_23  and  C16_24 
REMARK   19  A    between atoms: C16_24  and  C17_26 
REMARK   20  A    between atoms: C17_26  and  C18_27 
REMARK   21  A    between atoms: C18_27  and  C19_28 
REMARK   22  A    between atoms: C19_28  and  C20_29 
REMARK   23  A    between atoms: C20_29  and  C21_30 
REMARK   24  A    between atoms: C21_30  and  C22_31 
REMARK   25  A    between atoms: C22_31  and  C23_32 
REMARK   26  A    between atoms: C23_32  and  C24_33 
REMARK   27  A    between atoms: C25_34  and  C26_35 
REMARK   28  A    between atoms: C26_35  and  C27_36 
REMARK   29  A    between atoms: C27_36  and  C28_37 
REMARK   30  A    between atoms: C28_37  and  C29_38 
REMARK   31  A    between atoms: C29_38  and  C30_39 
ROOT
ATOM      1  C14 non A   1      17.651   3.360  12.360  0.00  0.00     0.180 C 
ENDROOT
BRANCH   1   2
ATOM      2  C13 non A   1      17.278   1.890  12.097  0.00  0.00     0.213 C 
BRANCH   2   3
ATOM      3  O2  non A   1      17.022   1.342  13.375  0.00  0.00    -0.319 OA
BRANCH   3   4
ATOM      4  C12 non A   1      15.955   0.436  13.586  0.00  0.00     0.258 C 
ATOM      5  O1  non A   1      14.845   0.955  13.407  0.00  0.00    -0.265 OA
BRANCH   4   6
ATOM      6  C11 non A   1      16.190  -0.937  13.965  0.00  0.00     0.111 C 
BRANCH   6   7
ATOM      7  C10 non A   1      16.051  -1.419  15.336  0.00  0.00     0.010 C 
BRANCH   7   8
ATOM      8  C9  non A   1      16.519  -2.738  15.758  0.00  0.00     0.000 C 
BRANCH   8   9
ATOM      9  C8  non A   1      16.007  -3.982  15.160  0.00  0.00     0.000 C 
BRANCH   9  10
ATOM     10  C7  non A   1      17.136  -4.935  14.809  0.00  0.00     0.000 C 
BRANCH  10  11
ATOM     11  C6  non A   1      17.233  -5.171  13.349  0.00  0.00     0.000 C 
BRANCH  11  12
ATOM     12  C5  non A   1      18.591  -4.707  12.820  0.00  0.00     0.000 C 
BRANCH  12  13
ATOM     13  C4  non A   1      19.536  -4.383  13.906  0.00  0.00     0.000 C 
BRANCH  13  14
ATOM     14  C3  non A   1      19.867  -2.954  14.049  0.00  0.00    -0.000 C 
BRANCH  14  15
ATOM     15  C2  non A   1      20.391  -2.177  12.920  0.00  0.00    -0.005 C 
ATOM     16  C1  non A   1      19.476  -1.167  12.324  0.00  0.00     0.005 C 
ENDBRANCH  14  15
ENDBRANCH  13  14
ENDBRANCH  12  13
ENDBRANCH  11  12
ENDBRANCH  10  11
ENDBRANCH   9  10
ENDBRANCH   8   9
ENDBRANCH   7   8
ENDBRANCH   6   7
ENDBRANCH   4   6
ENDBRANCH   3   4
ENDBRANCH   2   3
ENDBRANCH   1   2
BRANCH   1  17
ATOM     17  C15 non A   1      16.578   3.946  13.190  0.00  0.00     0.217 C 
BRANCH  17  18
ATOM     18  O3  non A   1      17.060   4.703  14.262  0.00  0.00    -0.280 OA
BRANCH  18  19
ATOM     19  P1  non A   1      15.821   5.030  15.371  0.00  0.00     0.422 P 
ATOM     20  O4  non A   1      14.915   3.601  15.535  0.00  0.00    -0.617 OA
ATOM     21  O5  non A   1      16.395   5.544  16.860  0.00  0.00    -0.617 OA
ATOM     22  O6  non A   1      14.941   6.099  14.772  0.00  0.00    -0.617 OA
ENDBRANCH  18  19
ENDBRANCH  17  18
ENDBRANCH   1  17
BRANCH   1  23
ATOM     23  O7  non A   1      17.912   3.977  11.133  0.00  0.00    -0.312 OA
BRANCH  23  24
ATOM     24  C16 non A   1      17.020   4.829  10.498  0.00  0.00     0.259 C 
ATOM     25  O8  non A   1      17.389   6.054  10.524  0.00  0.00    -0.265 OA
BRANCH  24  26
ATOM     26  C17 non A   1      15.770   4.455   9.840  0.00  0.00     0.111 C 
BRANCH  26  27
ATOM     27  C18 non A   1      15.833   4.276   8.364  0.00  0.00     0.010 C 
BRANCH  27  28
ATOM     28  C19 non A   1      14.703   4.957   7.650  0.00  0.00     0.000 C 
BRANCH  28  29
ATOM     29  C20 non A   1      15.130   6.273   7.061  0.00  0.00     0.000 C 
BRANCH  29  30
ATOM     30  C21 non A   1      15.765   6.132   5.686  0.00  0.00     0.000 C 
BRANCH  30  31
ATOM     31  C22 non A   1      17.186   6.553   5.687  0.00  0.00     0.004 C 
BRANCH  31  32
ATOM     32  C23 non A   1      18.115   5.558   5.048  0.00  0.00     0.027 C 
BRANCH  32  33
ATOM     33  C24 non A   1      17.537   5.032   3.820  0.00  0.00    -0.031 C 
ATOM     34  C25 non A   1      17.415   3.761   3.550  0.00  0.00    -0.031 C 
BRANCH  34  35
ATOM     35  C26 non A   1      17.778   2.579   4.316  0.00  0.00     0.027 C 
BRANCH  35  36
ATOM     36  C27 non A   1      17.011   2.469   5.584  0.00  0.00     0.004 C 
BRANCH  36  37
ATOM     37  C28 non A   1      16.509   1.150   6.009  0.00  0.00     0.000 C 
BRANCH  37  38
ATOM     38  C29 non A   1      16.272   0.265   4.768  0.00  0.00    -0.000 C 
BRANCH  38  39
ATOM     39  C30 non A   1      14.812   0.099   4.467  0.00  0.00    -0.005 C 
ATOM     40  C31 non A   1      14.045   0.417   5.756  0.00  0.00     0.005 C 
ENDBRANCH  38  39
ENDBRANCH  37  38
ENDBRANCH  36  37
ENDBRANCH  35  36
ENDBRANCH  34  35
ENDBRANCH  32  33
ENDBRANCH  31  32
ENDBRANCH  30  31
ENDBRANCH  29  30
ENDBRANCH  28  29
ENDBRANCH  27  28
ENDBRANCH  26  27
ENDBRANCH  24  26
ENDBRANCH  23  24
ENDBRANCH   1  23
TORSDOF 31
ENDMDL
MODEL 3
REMARK VINA RESULT:      -2.8     24.237     27.132
REMARK  31 active torsions:
REMARK  status: ('A' for Active; 'I' for Inactive)
REMARK    1  A    between atoms: C2_2  and  C3_3 
REMARK    2  A    between atoms: C3_3  and  C4_4 
REMARK    3  A    between atoms: C4_4  and  C5_5 
REMARK    4  A    between atoms: C5_5  and  C6_6 
REMARK    5  A    between atoms: C6_6  and  C7_7 
REMARK    6  A    between atoms: C7_7  and  C8_8 
REMARK    7  A    between atoms: C8_8  and  C9_9 
REMARK    8  A    between atoms: C9_9  and  C10_10 
REMARK    9  A    between atoms: C10_10  and  C11_11 
REMARK   10  A    between atoms: C11_11  and  C12_12 
REMARK   11  A    between atoms: C12_12  and  O2_14 
REMARK   12  A    between atoms: O2_14  and  C13_15 
REMARK   13  A    between atoms: C13_15  and  C14_16 
REMARK   14  A    between atoms: C14_16  and  C15_17 
REMARK   15  A    between atoms: C14_16  and  O7_23 
REMARK   16  A    between atoms: C15_17  and  O3_18 
REMARK   17  A    between atoms: O3_18  and  P1_19 
REMARK   18  A    between atoms: O7_23  and  C16_24 
REMARK   19  A    between atoms: C16_24  and  C17_26 
REMARK   20  A    between atoms: C17_26  and  C18_27 
REMARK   21  A    between atoms: C18_27  and  C19_28 
REMARK   22  A    between atoms: C19_28  and  C20_29 
REMARK   23  A    between atoms: C20_29  and  C21_30 
REMARK   24  A    between atoms: C21_30  and  C22_31 
REMARK   25  A    between atoms: C22_31  and  C23_32 
REMARK   26  A    between atoms: C23_32  and  C24_33 
REMARK   27  A    between atoms: C25_34  and  C26_35 
REMARK   28  A    between atoms: C26_35  and  C27_36 
REMARK   29  A    between atoms: C27_36  and  C28_37 
REMARK   30  A    between atoms: C28_37  and  C29_38 
REMARK   31  A    between atoms: C29_38  and  C30_39 
ROOT
ATOM      1  C14 non A   1       9.672  -7.658 -10.008  0.00  0.00     0.180 C 
ENDROOT
BRANCH   1   2
ATOM      2  C13 non A   1       9.241  -7.654 -11.486  0.00  0.00     0.213 C 
BRANCH   2   3
ATOM      3  O2  non A   1      10.312  -7.043 -12.178  0.00  0.00    -0.319 OA
BRANCH   3   4
ATOM      4  C12 non A   1      10.178  -6.636 -13.528  0.00  0.00     0.258 C 
ATOM      5  O1  non A   1      11.071  -7.091 -14.255  0.00  0.00    -0.265 OA
BRANCH   4   6
ATOM      6  C11 non A   1       9.096  -5.784 -13.959  0.00  0.00     0.111 C 
BRANCH   6   7
ATOM      7  C10 non A   1       9.151  -4.327 -13.884  0.00  0.00     0.010 C 
BRANCH   7   8
ATOM      8  C9  non A   1       8.622  -3.576 -12.747  0.00  0.00     0.000 C 
BRANCH   8   9
ATOM      9  C8  non A   1       9.299  -3.549 -11.440  0.00  0.00     0.000 C 
BRANCH   9  10
ATOM     10  C7  non A   1      10.806  -3.458 -11.597  0.00  0.00     0.000 C 
BRANCH  10  11
ATOM     11  C6  non A   1      11.521  -4.293 -10.601  0.00  0.00     0.000 C 
BRANCH  11  12
ATOM     12  C5  non A   1      12.886  -4.722 -11.142  0.00  0.00     0.000 C 
BRANCH  12  13
ATOM     13  C4  non A   1      14.003  -4.121 -10.388  0.00  0.00     0.000 C 
BRANCH  13  14
ATOM     14  C3  non A   1      14.103  -2.654 -10.470  0.00  0.00    -0.000 C 
BRANCH  14  15
ATOM     15  C2  non A   1      15.034  -2.003 -11.400  0.00  0.00    -0.005 C 
ATOM     16  C1  non A   1      14.727  -2.135 -12.849  0.00  0.00     0.005 C 
ENDBRANCH  14  15
ENDBRANCH  13  14
ENDBRANCH  12  13
ENDBRANCH  11  12
ENDBRANCH  10  11
ENDBRANCH   9  10
ENDBRANCH   8   9
ENDBRANCH   7   8
ENDBRANCH   6   7
ENDBRANCH   4   6
ENDBRANCH   3   4
ENDBRANCH   2   3
ENDBRANCH   1   2
BRANCH   1  17
ATOM     17  C15 non A   1       9.597  -9.055  -9.532  0.00  0.00     0.217 C 
BRANCH  17  18
ATOM     18  O3  non A   1      10.749  -9.796  -9.814  0.00  0.00    -0.280 OA
BRANCH  18  19
ATOM     19  P1  non A   1      11.716  -9.952  -8.432  0.00  0.00     0.422 P 
ATOM     20  O4  non A   1      10.688  -9.794  -7.088  0.00  0.00    -0.617 OA
ATOM     21  O5  non A   1      12.547 -11.407  -8.376  0.00  0.00    -0.617 OA
ATOM     22  O6  non A   1      12.700  -8.809  -8.430  0.00  0.00    -0.617 OA
ENDBRANCH  18  19
ENDBRANCH  17  18
ENDBRANCH   1  17
BRANCH   1  23
ATOM     23  O7  non A   1       8.905  -6.712  -9.321  0.00  0.00    -0.312 OA
BRANCH  23  24
ATOM     24  C16 non A   1       9.403  -5.917  -8.299  0.00  0.00     0.259 C 
ATOM     25  O8  non A   1       8.836  -4.772  -8.231  0.00  0.00    -0.265 OA
BRANCH  24  26
ATOM     26  C17 non A   1      10.460  -6.269  -7.353  0.00  0.00     0.111 C 
BRANCH  26  27
ATOM     27  C18 non A   1      11.285  -5.141  -6.841  0.00  0.00     0.010 C 
BRANCH  27  28
ATOM     28  C19 non A   1      10.906  -4.732  -5.449  0.00  0.00     0.000 C 
BRANCH  28  29
ATOM     29  C20 non A   1      11.476  -3.387  -5.089  0.00  0.00     0.000 C 
BRANCH  29  30
ATOM     30  C21 non A   1      11.362  -3.070  -3.606  0.00  0.00     0.000 C 
BRANCH  30  31
ATOM     31  C22 non A   1      11.445  -4.291  -2.770  0.00  0.00     0.004 C 
BRANCH  31  32
ATOM     32  C23 non A   1      12.851  -4.696  -2.423  0.00  0.00     0.027 C 
BRANCH  32  33
ATOM     33  C24 non A   1      12.883  -6.068  -1.937  0.00  0.00    -0.031 C 
ATOM     34  C25 non A   1      12.953  -7.120  -2.707  0.00  0.00    -0.031 C 
BRANCH  34  35
ATOM     35  C26 non A   1      13.019  -7.245  -4.155  0.00  0.00     0.027 C 
BRANCH  35  36
ATOM     36  C27 non A   1      14.195  -6.542  -4.731  0.00  0.00     0.004 C 
BRANCH  36  37
ATOM     37  C28 non A   1      14.461  -6.650  -6.177  0.00  0.00     0.000 C 
BRANCH  37  38
ATOM     38  C29 non A   1      15.303  -5.442  -6.637  0.00  0.00    -0.000 C 
BRANCH  38  39
ATOM     39  C30 non A   1      15.034  -4.222  -5.808  0.00  0.00    -0.005 C 
ATOM     40  C31 non A   1      14.606  -3.107  -6.769  0.00  0.00     0.005 C 
ENDBRANCH  38  39
ENDBRANCH  37  38
ENDBRANCH  36  37
ENDBRANCH  35  36
ENDBRANCH  34  35
ENDBRANCH  32  33
ENDBRANCH  31  32
ENDBRANCH  30  31
ENDBRANCH  29  30
ENDBRANCH  28  29
ENDBRANCH  27  28
ENDBRANCH  26  27
ENDBRANCH  24  26
ENDBRANCH  23  24
ENDBRANCH   1  23
TORSDOF 31
ENDMDL
MODEL 4
REMARK VINA RESULT:      -2.7     25.225     28.934
REMARK  31 active torsions:
REMARK  status: ('A' for Active; 'I' for Inactive)
REMARK    1  A    between atoms: C2_2  and  C3_3 
REMARK    2  A    between atoms: C3_3  and  C4_4 
REMARK    3  A    between atoms: C4_4  and  C5_5 
REMARK    4  A    between atoms: C5_5  and  C6_6 
REMARK    5  A    between atoms: C6_6  and  C7_7 
REMARK    6  A    between atoms: C7_7  and  C8_8 
REMARK    7  A    between atoms: C8_8  and  C9_9 
REMARK    8  A    between atoms: C9_9  and  C10_10 
REMARK    9  A    between atoms: C10_10  and  C11_11 
REMARK   10  A    between atoms: C11_11  and  C12_12 
REMARK   11  A    between atoms: C12_12  and  O2_14 
REMARK   12  A    between atoms: O2_14  and  C13_15 
REMARK   13  A    between atoms: C13_15  and  C14_16 
REMARK   14  A    between atoms: C14_16  and  C15_17 
REMARK   15  A    between atoms: C14_16  and  O7_23 
REMARK   16  A    between atoms: C15_17  and  O3_18 
REMARK   17  A    between atoms: O3_18  and  P1_19 
REMARK   18  A    between atoms: O7_23  and  C16_24 
REMARK   19  A    between atoms: C16_24  and  C17_26 
REMARK   20  A    between atoms: C17_26  and  C18_27 
REMARK   21  A    between atoms: C18_27  and  C19_28 
REMARK   22  A    between atoms: C19_28  and  C20_29 
REMARK   23  A    between atoms: C20_29  and  C21_30 
REMARK   24  A    between atoms: C21_30  and  C22_31 
REMARK   25  A    between atoms: C22_31  and  C23_32 
REMARK   26  A    between atoms: C23_32  and  C24_33 
REMARK   27  A    between atoms: C25_34  and  C26_35 
REMARK   28  A    between atoms: C26_35  and  C27_36 
REMARK   29  A    between atoms: C27_36  and  C28_37 
REMARK   30  A    between atoms: C28_37  and  C29_38 
REMARK   31  A    between atoms: C29_38  and  C30_39 
ROOT
ATOM      1  C14 non A   1      17.532   3.173  12.393  0.00  0.00     0.180 C 
ENDROOT
BRANCH   1   2
ATOM      2  C13 non A   1      17.364   1.660  12.159  0.00  0.00     0.213 C 
BRANCH   2   3
ATOM      3  O2  non A   1      17.225   1.103  13.451  0.00  0.00    -0.319 OA
BRANCH   3   4
ATOM      4  C12 non A   1      16.528  -0.112  13.656  0.00  0.00     0.258 C 
ATOM      5  O1  non A   1      15.326  -0.028  13.369  0.00  0.00    -0.265 OA
BRANCH   4   6
ATOM      6  C11 non A   1      17.194  -1.295  14.146  0.00  0.00     0.111 C 
BRANCH   6   7
ATOM      7  C10 non A   1      16.572  -2.616  14.149  0.00  0.00     0.010 C 
BRANCH   7   8
ATOM      8  C9  non A   1      16.373  -3.391  15.371  0.00  0.00     0.000 C 
BRANCH   8   9
ATOM      9  C8  non A   1      17.497  -3.822  16.219  0.00  0.00     0.000 C 
BRANCH   9  10
ATOM     10  C7  non A   1      17.347  -3.313  17.641  0.00  0.00     0.000 C 
BRANCH  10  11
ATOM     11  C6  non A   1      18.401  -2.332  17.996  0.00  0.00     0.000 C 
BRANCH  11  12
ATOM     12  C5  non A   1      17.790  -0.949  18.224  0.00  0.00     0.000 C 
BRANCH  12  13
ATOM     13  C4  non A   1      16.314  -0.978  18.219  0.00  0.00     0.000 C 
BRANCH  13  14
ATOM     14  C3  non A   1      15.672  -0.180  17.160  0.00  0.00    -0.000 C 
BRANCH  14  15
ATOM     15  C2  non A   1      14.794   0.951  17.484  0.00  0.00    -0.005 C 
ATOM     16  C1  non A   1      14.046   0.867  18.767  0.00  0.00     0.005 C 
ENDBRANCH  14  15
ENDBRANCH  13  14
ENDBRANCH  12  13
ENDBRANCH  11  12
ENDBRANCH  10  11
ENDBRANCH   9  10
ENDBRANCH   8   9
ENDBRANCH   7   8
ENDBRANCH   6   7
ENDBRANCH   4   6
ENDBRANCH   3   4
ENDBRANCH   2   3
ENDBRANCH   1   2
BRANCH   1  17
ATOM     17  C15 non A   1      16.372   3.628  13.188  0.00  0.00     0.217 C 
BRANCH  17  18
ATOM     18  O3  non A   1      16.704   4.593  14.144  0.00  0.00    -0.280 OA
BRANCH  18  19
ATOM     19  P1  non A   1      15.406   4.865  15.198  0.00  0.00     0.422 P 
ATOM     20  O4  non A   1      15.181   6.547  15.283  0.00  0.00    -0.617 OA
ATOM     21  O5  non A   1      13.996   4.101  14.710  0.00  0.00    -0.617 OA
ATOM     22  O6  non A   1      15.808   4.358  16.561  0.00  0.00    -0.617 OA
ENDBRANCH  18  19
ENDBRANCH  17  18
ENDBRANCH   1  17
BRANCH   1  23
ATOM     23  O7  non A   1      17.733   3.791  11.155  0.00  0.00    -0.312 OA
BRANCH  23  24
ATOM     24  C16 non A   1      16.760   4.534  10.501  0.00  0.00     0.259 C 
ATOM     25  O8  non A   1      17.003   5.790  10.497  0.00  0.00    -0.265 OA
BRANCH  24  26
ATOM     26  C17 non A   1      15.554   4.019   9.855  0.00  0.00     0.111 C 
BRANCH  26  27
ATOM     27  C18 non A   1      15.635   3.813   8.383  0.00  0.00     0.010 C 
BRANCH  27  28
ATOM     28  C19 non A   1      14.540   4.519   7.640  0.00  0.00     0.000 C 
BRANCH  28  29
ATOM     29  C20 non A   1      14.963   5.893   7.198  0.00  0.00     0.000 C 
BRANCH  29  30
ATOM     30  C21 non A   1      15.680   5.892   5.857  0.00  0.00     0.000 C 
BRANCH  30  31
ATOM     31  C22 non A   1      17.103   6.286   5.990  0.00  0.00     0.004 C 
BRANCH  31  32
ATOM     32  C23 non A   1      18.063   5.325   5.343  0.00  0.00     0.027 C 
BRANCH  32  33
ATOM     33  C24 non A   1      17.551   4.878   4.056  0.00  0.00    -0.031 C 
ATOM     34  C25 non A   1      17.484   3.628   3.686  0.00  0.00    -0.031 C 
BRANCH  34  35
ATOM     35  C26 non A   1      17.857   2.402   4.374  0.00  0.00     0.027 C 
BRANCH  35  36
ATOM     36  C27 non A   1      16.975   2.114   5.535  0.00  0.00     0.004 C 
BRANCH  36  37
ATOM     37  C28 non A   1      16.572   0.721   5.805  0.00  0.00     0.000 C 
BRANCH  37  38
ATOM     38  C29 non A   1      15.706   0.202   4.640  0.00  0.00    -0.000 C 
BRANCH  38  39
ATOM     39  C30 non A   1      14.240   0.306   4.940  0.00  0.00    -0.005 C 
ATOM     40  C31 non A   1      14.099   0.473   6.458  0.00  0.00     0.005 C 
ENDBRANCH  38  39
ENDBRANCH  37  38
ENDBRANCH  36  37
ENDBRANCH  35  36
ENDBRANCH  34  35
ENDBRANCH  32  33
ENDBRANCH  31  32
ENDBRANCH  30  31
ENDBRANCH  29  30
ENDBRANCH  28  29
ENDBRANCH  27  28
ENDBRANCH  26  27
ENDBRANCH  24  26
ENDBRANCH  23  24
ENDBRANCH   1  23
TORSDOF 31
ENDMDL
MODEL 5
REMARK VINA RESULT:      -2.7      5.393      9.523
REMARK  31 active torsions:
REMARK  status: ('A' for Active; 'I' for Inactive)
REMARK    1  A    between atoms: C2_2  and  C3_3 
REMARK    2  A    between atoms: C3_3  and  C4_4 
REMARK    3  A    between atoms: C4_4  and  C5_5 
REMARK    4  A    between atoms: C5_5  and  C6_6 
REMARK    5  A    between atoms: C6_6  and  C7_7 
REMARK    6  A    between atoms: C7_7  and  C8_8 
REMARK    7  A    between atoms: C8_8  and  C9_9 
REMARK    8  A    between atoms: C9_9  and  C10_10 
REMARK    9  A    between atoms: C10_10  and  C11_11 
REMARK   10  A    between atoms: C11_11  and  C12_12 
REMARK   11  A    between atoms: C12_12  and  O2_14 
REMARK   12  A    between atoms: O2_14  and  C13_15 
REMARK   13  A    between atoms: C13_15  and  C14_16 
REMARK   14  A    between atoms: C14_16  and  C15_17 
REMARK   15  A    between atoms: C14_16  and  O7_23 
REMARK   16  A    between atoms: C15_17  and  O3_18 
REMARK   17  A    between atoms: O3_18  and  P1_19 
REMARK   18  A    between atoms: O7_23  and  C16_24 
REMARK   19  A    between atoms: C16_24  and  C17_26 
REMARK   20  A    between atoms: C17_26  and  C18_27 
REMARK   21  A    between atoms: C18_27  and  C19_28 
REMARK   22  A    between atoms: C19_28  and  C20_29 
REMARK   23  A    between atoms: C20_29  and  C21_30 
REMARK   24  A    between atoms: C21_30  and  C22_31 
REMARK   25  A    between atoms: C22_31  and  C23_32 
REMARK   26  A    between atoms: C23_32  and  C24_33 
REMARK   27  A    between atoms: C25_34  and  C26_35 
REMARK   28  A    between atoms: C26_35  and  C27_36 
REMARK   29  A    between atoms: C27_36  and  C28_37 
REMARK   30  A    between atoms: C28_37  and  C29_38 
REMARK   31  A    between atoms: C29_38  and  C30_39 
ROOT
ATOM      1  C14 non A   1       2.050  13.049  -4.040  0.00  0.00     0.180 C 
ENDROOT
BRANCH   1   2
ATOM      2  C13 non A   1       0.614  13.590  -4.162  0.00  0.00     0.213 C 
BRANCH   2   3
ATOM      3  O2  non A   1      -0.021  12.735  -5.093  0.00  0.00    -0.319 OA
BRANCH   3   4
ATOM      4  C12 non A   1      -1.431  12.620  -5.142  0.00  0.00     0.258 C 
ATOM      5  O1  non A   1      -1.875  11.828  -4.300  0.00  0.00    -0.265 OA
BRANCH   4   6
ATOM      6  C11 non A   1      -2.221  13.370  -6.088  0.00  0.00     0.111 C 
BRANCH   6   7
ATOM      7  C10 non A   1      -1.652  14.376  -6.980  0.00  0.00     0.010 C 
BRANCH   7   8
ATOM      8  C9  non A   1      -1.006  14.032  -8.245  0.00  0.00     0.000 C 
BRANCH   8   9
ATOM      9  C8  non A   1      -1.152  12.706  -8.867  0.00  0.00     0.000 C 
BRANCH   9  10
ATOM     10  C7  non A   1      -1.862  12.795 -10.205  0.00  0.00     0.000 C 
BRANCH  10  11
ATOM     11  C6  non A   1      -3.330  12.939 -10.050  0.00  0.00     0.000 C 
BRANCH  11  12
ATOM     12  C5  non A   1      -4.027  11.597 -10.278  0.00  0.00     0.000 C 
BRANCH  12  13
ATOM     13  C4  non A   1      -5.153  11.384  -9.348  0.00  0.00     0.000 C 
BRANCH  13  14
ATOM     14  C3  non A   1      -4.828  10.628  -8.126  0.00  0.00    -0.000 C 
BRANCH  14  15
ATOM     15  C2  non A   1      -5.777   9.669  -7.547  0.00  0.00    -0.005 C 
ATOM     16  C1  non A   1      -5.955   8.385  -8.277  0.00  0.00     0.005 C 
ENDBRANCH  14  15
ENDBRANCH  13  14
ENDBRANCH  12  13
ENDBRANCH  11  12
ENDBRANCH  10  11
ENDBRANCH   9  10
ENDBRANCH   8   9
ENDBRANCH   7   8
ENDBRANCH   6   7
ENDBRANCH   4   6
ENDBRANCH   3   4
ENDBRANCH   2   3
ENDBRANCH   1   2
BRANCH   1  17
ATOM     17  C15 non A   1       2.923  14.191  -3.696  0.00  0.00     0.217 C 
BRANCH  17  18
ATOM     18  O3  non A   1       2.528  14.856  -2.532  0.00  0.00    -0.280 OA
BRANCH  18  19
ATOM     19  P1  non A   1       3.112  16.447  -2.523  0.00  0.00     0.422 P 
ATOM     20  O4  non A   1       3.008  17.002  -0.919  0.00  0.00    -0.617 OA
ATOM     21  O5  non A   1       4.683  16.571  -3.093  0.00  0.00    -0.617 OA
ATOM     22  O6  non A   1       2.194  17.277  -3.386  0.00  0.00    -0.617 OA
ENDBRANCH  18  19
ENDBRANCH  17  18
ENDBRANCH   1  17
BRANCH   1  23
ATOM     23  O7  non A   1       2.358  12.345  -5.208  0.00  0.00    -0.312 OA
BRANCH  23  24
ATOM     24  C16 non A   1       3.152  12.855  -6.225  0.00  0.00     0.259 C 
ATOM     25  O8  non A   1       2.522  13.007  -7.328  0.00  0.00    -0.265 OA
BRANCH  24  26
ATOM     26  C17 non A   1       4.567  13.210  -6.135  0.00  0.00     0.111 C 
BRANCH  26  27
ATOM     27  C18 non A   1       5.533  12.079  -6.200  0.00  0.00     0.010 C 
BRANCH  27  28
ATOM     28  C19 non A   1       4.924  10.829  -6.762  0.00  0.00     0.000 C 
BRANCH  28  29
ATOM     29  C20 non A   1       5.882  10.098  -7.661  0.00  0.00     0.000 C 
BRANCH  29  30
ATOM     30  C21 non A   1       5.236   9.605  -8.946  0.00  0.00     0.000 C 
BRANCH  30  31
ATOM     31  C22 non A   1       3.759   9.729  -8.906  0.00  0.00     0.004 C 
BRANCH  31  32
ATOM     32  C23 non A   1       3.176  10.435 -10.100  0.00  0.00     0.027 C 
BRANCH  32  33
ATOM     33  C24 non A   1       1.736  10.588  -9.951  0.00  0.00    -0.031 C 
ATOM     34  C25 non A   1       0.873  10.393 -10.910  0.00  0.00    -0.031 C 
BRANCH  34  35
ATOM     35  C26 non A   1       1.054   9.993 -12.297  0.00  0.00     0.027 C 
BRANCH  35  36
ATOM     36  C27 non A   1       1.083  11.156 -13.222  0.00  0.00     0.004 C 
BRANCH  36  37
ATOM     37  C28 non A   1      -0.118  12.001 -13.353  0.00  0.00     0.000 C 
BRANCH  37  38
ATOM     38  C29 non A   1       0.302  13.484 -13.421  0.00  0.00    -0.000 C 
BRANCH  38  39
ATOM     39  C30 non A   1       0.483  13.952 -14.834  0.00  0.00    -0.005 C 
ATOM     40  C31 non A   1      -0.712  13.432 -15.641  0.00  0.00     0.005 C 
ENDBRANCH  38  39
ENDBRANCH  37  38
ENDBRANCH  36  37
ENDBRANCH  35  36
ENDBRANCH  34  35
ENDBRANCH  32  33
ENDBRANCH  31  32
ENDBRANCH  30  31
ENDBRANCH  29  30
ENDBRANCH  28  29
ENDBRANCH  27  28
ENDBRANCH  26  27
ENDBRANCH  24  26
ENDBRANCH  23  24
ENDBRANCH   1  23
TORSDOF 31
ENDMDL
MODEL 6
REMARK VINA RESULT:      -2.4     24.373     28.830
REMARK  31 active torsions:
REMARK  status: ('A' for Active; 'I' for Inactive)
REMARK    1  A    between atoms: C2_2  and  C3_3 
REMARK    2  A    between atoms: C3_3  and  C4_4 
REMARK    3  A    between atoms: C4_4  and  C5_5 
REMARK    4  A    between atoms: C5_5  and  C6_6 
REMARK    5  A    between atoms: C6_6  and  C7_7 
REMARK    6  A    between atoms: C7_7  and  C8_8 
REMARK    7  A    between atoms: C8_8  and  C9_9 
REMARK    8  A    between atoms: C9_9  and  C10_10 
REMARK    9  A    between atoms: C10_10  and  C11_11 
REMARK   10  A    between atoms: C11_11  and  C12_12 
REMARK   11  A    between atoms: C12_12  and  O2_14 
REMARK   12  A    between atoms: O2_14  and  C13_15 
REMARK   13  A    between atoms: C13_15  and  C14_16 
REMARK   14  A    between atoms: C14_16  and  C15_17 
REMARK   15  A    between atoms: C14_16  and  O7_23 
REMARK   16  A    between atoms: C15_17  and  O3_18 
REMARK   17  A    between atoms: O3_18  and  P1_19 
REMARK   18  A    between atoms: O7_23  and  C16_24 
REMARK   19  A    between atoms: C16_24  and  C17_26 
REMARK   20  A    between atoms: C17_26  and  C18_27 
REMARK   21  A    between atoms: C18_27  and  C19_28 
REMARK   22  A    between atoms: C19_28  and  C20_29 
REMARK   23  A    between atoms: C20_29  and  C21_30 
REMARK   24  A    between atoms: C21_30  and  C22_31 
REMARK   25  A    between atoms: C22_31  and  C23_32 
REMARK   26  A    between atoms: C23_32  and  C24_33 
REMARK   27  A    between atoms: C25_34  and  C26_35 
REMARK   28  A    between atoms: C26_35  and  C27_36 
REMARK   29  A    between atoms: C27_36  and  C28_37 
REMARK   30  A    between atoms: C28_37  and  C29_38 
REMARK   31  A    between atoms: C29_38  and  C30_39 
ROOT
ATOM      1  C14 non A   1      11.150  -6.861  -7.592  0.00  0.00     0.180 C 
ENDROOT
BRANCH   1   2
ATOM      2  C13 non A   1      11.375  -8.320  -7.153  0.00  0.00     0.213 C 
BRANCH   2   3
ATOM      3  O2  non A   1      10.124  -8.953  -7.331  0.00  0.00    -0.319 OA
BRANCH   3   4
ATOM      4  C12 non A   1       9.955 -10.334  -7.068  0.00  0.00     0.258 C 
ATOM      5  O1  non A   1       8.784 -10.629  -6.795  0.00  0.00    -0.265 OA
BRANCH   4   6
ATOM      6  C11 non A   1      11.062 -11.258  -7.127  0.00  0.00     0.111 C 
BRANCH   6   7
ATOM      7  C10 non A   1      11.297 -12.147  -8.261  0.00  0.00     0.010 C 
BRANCH   7   8
ATOM      8  C9  non A   1      10.698 -13.477  -8.357  0.00  0.00     0.000 C 
BRANCH   8   9
ATOM      9  C8  non A   1       9.432 -13.718  -9.069  0.00  0.00     0.000 C 
BRANCH   9  10
ATOM     10  C7  non A   1       8.563 -14.721  -8.333  0.00  0.00     0.000 C 
BRANCH  10  11
ATOM     11  C6  non A   1       8.588 -14.510  -6.865  0.00  0.00     0.000 C 
BRANCH  11  12
ATOM     12  C5  non A   1       8.355 -15.830  -6.129  0.00  0.00     0.000 C 
BRANCH  12  13
ATOM     13  C4  non A   1       8.462 -15.683  -4.665  0.00  0.00     0.000 C 
BRANCH  13  14
ATOM     14  C3  non A   1       7.779 -16.722  -3.875  0.00  0.00    -0.000 C 
BRANCH  14  15
ATOM     15  C2  non A   1       6.688 -16.385  -2.953  0.00  0.00    -0.005 C 
ATOM     16  C1  non A   1       5.414 -15.925  -3.568  0.00  0.00     0.005 C 
ENDBRANCH  14  15
ENDBRANCH  13  14
ENDBRANCH  12  13
ENDBRANCH  11  12
ENDBRANCH  10  11
ENDBRANCH   9  10
ENDBRANCH   8   9
ENDBRANCH   7   8
ENDBRANCH   6   7
ENDBRANCH   4   6
ENDBRANCH   3   4
ENDBRANCH   2   3
ENDBRANCH   1   2
BRANCH   1  17
ATOM     17  C15 non A   1      12.349  -6.437  -8.344  0.00  0.00     0.217 C 
BRANCH  17  18
ATOM     18  O3  non A   1      12.151  -6.411  -9.728  0.00  0.00    -0.280 OA
BRANCH  18  19
ATOM     19  P1  non A   1      12.773  -4.983 -10.396  0.00  0.00     0.422 P 
ATOM     20  O4  non A   1      14.456  -5.019 -10.161  0.00  0.00    -0.617 OA
ATOM     21  O5  non A   1      12.404  -4.808 -12.022  0.00  0.00    -0.617 OA
ATOM     22  O6  non A   1      12.196  -3.825  -9.621  0.00  0.00    -0.617 OA
ENDBRANCH  18  19
ENDBRANCH  17  18
ENDBRANCH   1  17
BRANCH   1  23
ATOM     23  O7  non A   1      10.810  -6.108  -6.464  0.00  0.00    -0.312 OA
BRANCH  23  24
ATOM     24  C16 non A   1      10.684  -4.726  -6.473  0.00  0.00     0.259 C 
ATOM     25  O8  non A   1       9.776  -4.309  -7.272  0.00  0.00    -0.265 OA
BRANCH  24  26
ATOM     26  C17 non A   1      11.462  -3.772  -5.686  0.00  0.00     0.111 C 
BRANCH  26  27
ATOM     27  C18 non A   1      12.551  -4.345  -4.849  0.00  0.00     0.010 C 
BRANCH  27  28
ATOM     28  C19 non A   1      13.915  -3.924  -5.307  0.00  0.00     0.000 C 
BRANCH  28  29
ATOM     29  C20 non A   1      13.942  -2.480  -5.725  0.00  0.00     0.000 C 
BRANCH  29  30
ATOM     30  C21 non A   1      14.500  -2.276  -7.125  0.00  0.00     0.000 C 
BRANCH  30  31
ATOM     31  C22 non A   1      15.653  -3.167  -7.397  0.00  0.00     0.004 C 
BRANCH  31  32
ATOM     32  C23 non A   1      16.938  -2.432  -7.670  0.00  0.00     0.027 C 
BRANCH  32  33
ATOM     33  C24 non A   1      16.667  -1.126  -8.251  0.00  0.00    -0.031 C 
ATOM     34  C25 non A   1      17.017   0.008  -7.707  0.00  0.00    -0.031 C 
BRANCH  34  35
ATOM     35  C26 non A   1      17.726   0.300  -6.471  0.00  0.00     0.027 C 
BRANCH  35  36
ATOM     36  C27 non A   1      16.813   0.737  -5.384  0.00  0.00     0.004 C 
BRANCH  36  37
ATOM     37  C28 non A   1      16.995   0.189  -4.027  0.00  0.00     0.000 C 
BRANCH  37  38
ATOM     38  C29 non A   1      17.747  -1.155  -4.112  0.00  0.00    -0.000 C 
BRANCH  38  39
ATOM     39  C30 non A   1      16.942  -2.286  -3.542  0.00  0.00    -0.005 C 
ATOM     40  C31 non A   1      17.497  -3.584  -4.141  0.00  0.00     0.005 C 
ENDBRANCH  38  39
ENDBRANCH  37  38
ENDBRANCH  36  37
ENDBRANCH  35  36
ENDBRANCH  34  35
ENDBRANCH  32  33
ENDBRANCH  31  32
ENDBRANCH  30  31
ENDBRANCH  29  30
ENDBRANCH  28  29
ENDBRANCH  27  28
ENDBRANCH  26  27
ENDBRANCH  24  26
ENDBRANCH  23  24
ENDBRANCH   1  23
TORSDOF 31
ENDMDL
MODEL 7
REMARK VINA RESULT:      -2.4     33.487     35.870
REMARK  31 active torsions:
REMARK  status: ('A' for Active; 'I' for Inactive)
REMARK    1  A    between atoms: C2_2  and  C3_3 
REMARK    2  A    between atoms: C3_3  and  C4_4 
REMARK    3  A    between atoms: C4_4  and  C5_5 
REMARK    4  A    between atoms: C5_5  and  C6_6 
REMARK    5  A    between atoms: C6_6  and  C7_7 
REMARK    6  A    between atoms: C7_7  and  C8_8 
REMARK    7  A    between atoms: C8_8  and  C9_9 
REMARK    8  A    between atoms: C9_9  and  C10_10 
REMARK    9  A    between atoms: C10_10  and  C11_11 
REMARK   10  A    between atoms: C11_11  and  C12_12 
REMARK   11  A    between atoms: C12_12  and  O2_14 
REMARK   12  A    between atoms: O2_14  and  C13_15 
REMARK   13  A    between atoms: C13_15  and  C14_16 
REMARK   14  A    between atoms: C14_16  and  C15_17 
REMARK   15  A    between atoms: C14_16  and  O7_23 
REMARK   16  A    between atoms: C15_17  and  O3_18 
REMARK   17  A    between atoms: O3_18  and  P1_19 
REMARK   18  A    between atoms: O7_23  and  C16_24 
REMARK   19  A    between atoms: C16_24  and  C17_26 
REMARK   20  A    between atoms: C17_26  and  C18_27 
REMARK   21  A    between atoms: C18_27  and  C19_28 
REMARK   22  A    between atoms: C19_28  and  C20_29 
REMARK   23  A    between atoms: C20_29  and  C21_30 
REMARK   24  A    between atoms: C21_30  and  C22_31 
REMARK   25  A    between atoms: C22_31  and  C23_32 
REMARK   26  A    between atoms: C23_32  and  C24_33 
REMARK   27  A    between atoms: C25_34  and  C26_35 
REMARK   28  A    between atoms: C26_35  and  C27_36 
REMARK   29  A    between atoms: C27_36  and  C28_37 
REMARK   30  A    between atoms: C28_37  and  C29_38 
REMARK   31  A    between atoms: C29_38  and  C30_39 
ROOT
ATOM      1  C14 non A   1       6.826 -10.213  18.282  0.00  0.00     0.180 C 
ENDROOT
BRANCH   1   2
ATOM      2  C13 non A   1       5.318 -10.246  17.972  0.00  0.00     0.213 C 
BRANCH   2   3
ATOM      3  O2  non A   1       5.048 -11.585  17.608  0.00  0.00    -0.319 OA
BRANCH   3   4
ATOM      4  C12 non A   1       3.784 -12.173  17.853  0.00  0.00     0.258 C 
ATOM      5  O1  non A   1       3.264 -11.768  18.901  0.00  0.00    -0.265 OA
BRANCH   4   6
ATOM      6  C11 non A   1       3.205 -13.135  16.945  0.00  0.00     0.111 C 
BRANCH   6   7
ATOM      7  C10 non A   1       1.904 -12.947  16.311  0.00  0.00     0.010 C 
BRANCH   7   8
ATOM      8  C9  non A   1       1.602 -11.803  15.453  0.00  0.00     0.000 C 
BRANCH   8   9
ATOM      9  C8  non A   1       1.080 -10.536  15.989  0.00  0.00     0.000 C 
BRANCH   9  10
ATOM     10  C7  non A   1       0.261 -10.761  17.247  0.00  0.00     0.000 C 
BRANCH  10  11
ATOM     11  C6  non A   1      -1.158 -10.368  17.066  0.00  0.00     0.000 C 
BRANCH  11  12
ATOM     12  C5  non A   1      -1.939 -11.485  16.372  0.00  0.00     0.000 C 
BRANCH  12  13
ATOM     13  C4  non A   1      -2.676 -11.002  15.188  0.00  0.00     0.000 C 
BRANCH  13  14
ATOM     14  C3  non A   1      -4.113 -10.755  15.397  0.00  0.00    -0.000 C 
BRANCH  14  15
ATOM     15  C2  non A   1      -4.762  -9.544  14.879  0.00  0.00    -0.005 C 
ATOM     16  C1  non A   1      -6.104  -9.720  14.263  0.00  0.00     0.005 C 
ENDBRANCH  14  15
ENDBRANCH  13  14
ENDBRANCH  12  13
ENDBRANCH  11  12
ENDBRANCH  10  11
ENDBRANCH   9  10
ENDBRANCH   8   9
ENDBRANCH   7   8
ENDBRANCH   6   7
ENDBRANCH   4   6
ENDBRANCH   3   4
ENDBRANCH   2   3
ENDBRANCH   1   2
BRANCH   1  17
ATOM     17  C15 non A   1       7.080  -9.016  19.110  0.00  0.00     0.217 C 
BRANCH  17  18
ATOM     18  O3  non A   1       6.916  -9.248  20.479  0.00  0.00    -0.280 OA
BRANCH  18  19
ATOM     19  P1  non A   1       8.000  -8.309  21.381  0.00  0.00     0.422 P 
ATOM     20  O4  non A   1       8.929  -7.422  20.268  0.00  0.00    -0.617 OA
ATOM     21  O5  non A   1       7.234  -7.285  22.465  0.00  0.00    -0.617 OA
ATOM     22  O6  non A   1       8.908  -9.251  22.132  0.00  0.00    -0.617 OA
ENDBRANCH  18  19
ENDBRANCH  17  18
ENDBRANCH   1  17
BRANCH   1  23
ATOM     23  O7  non A   1       7.527 -10.309  17.076  0.00  0.00    -0.312 OA
BRANCH  23  24
ATOM     24  C16 non A   1       7.805  -9.221  16.260  0.00  0.00     0.259 C 
ATOM     25  O8  non A   1       8.903  -8.637  16.558  0.00  0.00    -0.265 OA
BRANCH  24  26
ATOM     26  C17 non A   1       6.988  -8.725  15.155  0.00  0.00     0.111 C 
BRANCH  26  27
ATOM     27  C18 non A   1       7.485  -9.025  13.785  0.00  0.00     0.010 C 
BRANCH  27  28
ATOM     28  C19 non A   1       8.381 -10.228  13.745  0.00  0.00     0.000 C 
BRANCH  28  29
ATOM     29  C20 non A   1       7.695 -11.413  13.124  0.00  0.00     0.000 C 
BRANCH  29  30
ATOM     30  C21 non A   1       7.621 -12.613  14.054  0.00  0.00     0.000 C 
BRANCH  30  31
ATOM     31  C22 non A   1       6.224 -12.935  14.432  0.00  0.00     0.004 C 
BRANCH  31  32
ATOM     32  C23 non A   1       5.204 -11.994  13.852  0.00  0.00     0.027 C 
BRANCH  32  33
ATOM     33  C24 non A   1       4.145 -12.735  13.183  0.00  0.00    -0.031 C 
ATOM     34  C25 non A   1       4.063 -12.893  11.890  0.00  0.00    -0.031 C 
BRANCH  34  35
ATOM     35  C26 non A   1       4.920 -12.430  10.810  0.00  0.00     0.027 C 
BRANCH  35  36
ATOM     36  C27 non A   1       5.641 -13.544  10.141  0.00  0.00     0.004 C 
BRANCH  36  37
ATOM     37  C28 non A   1       7.064 -13.770  10.451  0.00  0.00     0.000 C 
BRANCH  37  38
ATOM     38  C29 non A   1       7.209 -15.052  11.297  0.00  0.00    -0.000 C 
BRANCH  38  39
ATOM     39  C30 non A   1       8.290 -15.951  10.774  0.00  0.00    -0.005 C 
ATOM     40  C31 non A   1       8.905 -15.256   9.553  0.00  0.00     0.005 C 
ENDBRANCH  38  39
ENDBRANCH  37  38
ENDBRANCH  36  37
ENDBRANCH  35  36
ENDBRANCH  34  35
ENDBRANCH  32  33
ENDBRANCH  31  32
ENDBRANCH  30  31
ENDBRANCH  29  30
ENDBRANCH  28  29
ENDBRANCH  27  28
ENDBRANCH  26  27
ENDBRANCH  24  26
ENDBRANCH  23  24
ENDBRANCH   1  23
TORSDOF 31
ENDMDL
MODEL 8
REMARK VINA RESULT:      -2.3     24.682     28.321
REMARK  31 active torsions:
REMARK  status: ('A' for Active; 'I' for Inactive)
REMARK    1  A    between atoms: C2_2  and  C3_3 
REMARK    2  A    between atoms: C3_3  and  C4_4 
REMARK    3  A    between atoms: C4_4  and  C5_5 
REMARK    4  A    between atoms: C5_5  and  C6_6 
REMARK    5  A    between atoms: C6_6  and  C7_7 
REMARK    6  A    between atoms: C7_7  and  C8_8 
REMARK    7  A    between atoms: C8_8  and  C9_9 
REMARK    8  A    between atoms: C9_9  and  C10_10 
REMARK    9  A    between atoms: C10_10  and  C11_11 
REMARK   10  A    between atoms: C11_11  and  C12_12 
REMARK   11  A    between atoms: C12_12  and  O2_14 
REMARK   12  A    between atoms: O2_14  and  C13_15 
REMARK   13  A    between atoms: C13_15  and  C14_16 
REMARK   14  A    between atoms: C14_16  and  C15_17 
REMARK   15  A    between atoms: C14_16  and  O7_23 
REMARK   16  A    between atoms: C15_17  and  O3_18 
REMARK   17  A    between atoms: O3_18  and  P1_19 
REMARK   18  A    between atoms: O7_23  and  C16_24 
REMARK   19  A    between atoms: C16_24  and  C17_26 
REMARK   20  A    between atoms: C17_26  and  C18_27 
REMARK   21  A    between atoms: C18_27  and  C19_28 
REMARK   22  A    between atoms: C19_28  and  C20_29 
REMARK   23  A    between atoms: C20_29  and  C21_30 
REMARK   24  A    between atoms: C21_30  and  C22_31 
REMARK   25  A    between atoms: C22_31  and  C23_32 
REMARK   26  A    between atoms: C23_32  and  C24_33 
REMARK   27  A    between atoms: C25_34  and  C26_35 
REMARK   28  A    between atoms: C26_35  and  C27_36 
REMARK   29  A    between atoms: C27_36  and  C28_37 
REMARK   30  A    between atoms: C28_37  and  C29_38 
REMARK   31  A    between atoms: C29_38  and  C30_39 
ROOT
ATOM      1  C14 non A   1       7.617  -8.386 -16.713  0.00  0.00     0.180 C 
ENDROOT
BRANCH   1   2
ATOM      2  C13 non A   1       7.671  -6.890 -17.071  0.00  0.00     0.213 C 
BRANCH   2   3
ATOM      3  O2  non A   1       7.859  -6.225 -15.838  0.00  0.00    -0.319 OA
BRANCH   3   4
ATOM      4  C12 non A   1       6.907  -5.296 -15.352  0.00  0.00     0.258 C 
ATOM      5  O1  non A   1       6.363  -4.651 -16.258  0.00  0.00    -0.265 OA
BRANCH   4   6
ATOM      6  C11 non A   1       6.635  -5.156 -13.941  0.00  0.00     0.111 C 
BRANCH   6   7
ATOM      7  C10 non A   1       6.849  -6.233 -12.979  0.00  0.00     0.010 C 
BRANCH   7   8
ATOM      8  C9  non A   1       7.516  -6.023 -11.696  0.00  0.00     0.000 C 
BRANCH   8   9
ATOM      9  C8  non A   1       7.168  -4.905 -10.803  0.00  0.00     0.000 C 
BRANCH   9  10
ATOM     10  C7  non A   1       8.396  -4.346 -10.108  0.00  0.00     0.000 C 
BRANCH  10  11
ATOM     11  C6  non A   1       8.452  -4.734  -8.678  0.00  0.00     0.000 C 
BRANCH  11  12
ATOM     12  C5  non A   1       9.883  -4.631  -8.150  0.00  0.00     0.000 C 
BRANCH  12  13
ATOM     13  C4  non A   1      10.224  -5.736  -7.232  0.00  0.00     0.000 C 
BRANCH  13  14
ATOM     14  C3  non A   1      11.034  -5.356  -6.061  0.00  0.00    -0.000 C 
BRANCH  14  15
ATOM     15  C2  non A   1      12.460  -5.694  -5.978  0.00  0.00    -0.005 C 
ATOM     16  C1  non A   1      12.839  -6.743  -4.995  0.00  0.00     0.005 C 
ENDBRANCH  14  15
ENDBRANCH  13  14
ENDBRANCH  12  13
ENDBRANCH  11  12
ENDBRANCH  10  11
ENDBRANCH   9  10
ENDBRANCH   8   9
ENDBRANCH   7   8
ENDBRANCH   6   7
ENDBRANCH   4   6
ENDBRANCH   3   4
ENDBRANCH   2   3
ENDBRANCH   1   2
BRANCH   1  17
ATOM     17  C15 non A   1       6.205  -8.811 -16.806  0.00  0.00     0.217 C 
BRANCH  17  18
ATOM     18  O3  non A   1       5.454  -8.478 -15.674  0.00  0.00    -0.280 OA
BRANCH  18  19
ATOM     19  P1  non A   1       4.260  -9.644 -15.381  0.00  0.00     0.422 P 
ATOM     20  O4  non A   1       4.765 -11.072 -16.154  0.00  0.00    -0.617 OA
ATOM     21  O5  non A   1       3.997  -9.914 -13.748  0.00  0.00    -0.617 OA
ATOM     22  O6  non A   1       2.983  -9.166 -16.026  0.00  0.00    -0.617 OA
ENDBRANCH  18  19
ENDBRANCH  17  18
ENDBRANCH   1  17
BRANCH   1  23
ATOM     23  O7  non A   1       8.255  -8.570 -15.482  0.00  0.00    -0.312 OA
BRANCH  23  24
ATOM     24  C16 non A   1       8.913  -9.738 -15.125  0.00  0.00     0.259 C 
ATOM     25  O8  non A   1       9.573 -10.258 -16.089  0.00  0.00    -0.265 OA
BRANCH  24  26
ATOM     26  C17 non A   1       8.910 -10.377 -13.811  0.00  0.00     0.111 C 
BRANCH  26  27
ATOM     27  C18 non A   1       8.491  -9.522 -12.667  0.00  0.00     0.010 C 
BRANCH  27  28
ATOM     28  C19 non A   1       9.360  -9.707 -11.458  0.00  0.00     0.000 C 
BRANCH  28  29
ATOM     29  C20 non A   1      10.092  -8.444 -11.100  0.00  0.00     0.000 C 
BRANCH  29  30
ATOM     30  C21 non A   1      10.231  -8.241  -9.599  0.00  0.00     0.000 C 
BRANCH  30  31
ATOM     31  C22 non A   1       9.247  -9.047  -8.838  0.00  0.00     0.004 C 
BRANCH  31  32
ATOM     32  C23 non A   1       9.857  -9.867  -7.735  0.00  0.00     0.027 C 
BRANCH  32  33
ATOM     33  C24 non A   1      11.038  -9.207  -7.198  0.00  0.00    -0.031 C 
ATOM     34  C25 non A   1      12.247  -9.695  -7.264  0.00  0.00    -0.031 C 
BRANCH  34  35
ATOM     35  C26 non A   1      12.752 -10.930  -7.843  0.00  0.00     0.027 C 
BRANCH  35  36
ATOM     36  C27 non A   1      12.827 -12.032  -6.849  0.00  0.00     0.004 C 
BRANCH  36  37
ATOM     37  C28 non A   1      13.895 -12.014  -5.832  0.00  0.00     0.000 C 
BRANCH  37  38
ATOM     38  C29 non A   1      13.271 -11.825  -4.435  0.00  0.00    -0.000 C 
BRANCH  38  39
ATOM     39  C30 non A   1      13.800 -10.603  -3.744  0.00  0.00    -0.005 C 
ATOM     40  C31 non A   1      15.020 -10.125  -4.541  0.00  0.00     0.005 C 
ENDBRANCH  38  39
ENDBRANCH  37  38
ENDBRANCH  36  37
ENDBRANCH  35  36
ENDBRANCH  34  35
ENDBRANCH  32  33
ENDBRANCH  31  32
ENDBRANCH  30  31
ENDBRANCH  29  30
ENDBRANCH  28  29
ENDBRANCH  27  28
ENDBRANCH  26  27
ENDBRANCH  24  26
ENDBRANCH  23  24
ENDBRANCH   1  23
TORSDOF 31
ENDMDL
MODEL 9
REMARK VINA RESULT:      -2.3     17.501     20.171
REMARK  31 active torsions:
REMARK  status: ('A' for Active; 'I' for Inactive)
REMARK    1  A    between atoms: C2_2  and  C3_3 
REMARK    2  A    between atoms: C3_3  and  C4_4 
REMARK    3  A    between atoms: C4_4  and  C5_5 
REMARK    4  A    between atoms: C5_5  and  C6_6 
REMARK    5  A    between atoms: C6_6  and  C7_7 
REMARK    6  A    between atoms: C7_7  and  C8_8 
REMARK    7  A    between atoms: C8_8  and  C9_9 
REMARK    8  A    between atoms: C9_9  and  C10_10 
REMARK    9  A    between atoms: C10_10  and  C11_11 
REMARK   10  A    between atoms: C11_11  and  C12_12 
REMARK   11  A    between atoms: C12_12  and  O2_14 
REMARK   12  A    between atoms: O2_14  and  C13_15 
REMARK   13  A    between atoms: C13_15  and  C14_16 
REMARK   14  A    between atoms: C14_16  and  C15_17 
REMARK   15  A    between atoms: C14_16  and  O7_23 
REMARK   16  A    between atoms: C15_17  and  O3_18 
REMARK   17  A    between atoms: O3_18  and  P1_19 
REMARK   18  A    between atoms: O7_23  and  C16_24 
REMARK   19  A    between atoms: C16_24  and  C17_26 
REMARK   20  A    between atoms: C17_26  and  C18_27 
REMARK   21  A    between atoms: C18_27  and  C19_28 
REMARK   22  A    between atoms: C19_28  and  C20_29 
REMARK   23  A    between atoms: C20_29  and  C21_30 
REMARK   24  A    between atoms: C21_30  and  C22_31 
REMARK   25  A    between atoms: C22_31  and  C23_32 
REMARK   26  A    between atoms: C23_32  and  C24_33 
REMARK   27  A    between atoms: C25_34  and  C26_35 
REMARK   28  A    between atoms: C26_35  and  C27_36 
REMARK   29  A    between atoms: C27_36  and  C28_37 
REMARK   30  A    between atoms: C28_37  and  C29_38 
REMARK   31  A    between atoms: C29_38  and  C30_39 
ROOT
ATOM      1  C14 non A   1      -4.315  11.820  12.990  0.00  0.00     0.180 C 
ENDROOT
BRANCH   1   2
ATOM      2  C13 non A   1      -3.786  12.577  11.758  0.00  0.00     0.213 C 
BRANCH   2   3
ATOM      3  O2  non A   1      -2.702  13.346  12.239  0.00  0.00    -0.319 OA
BRANCH   3   4
ATOM      4  C12 non A   1      -1.518  13.503  11.477  0.00  0.00     0.258 C 
ATOM      5  O1  non A   1      -1.065  12.426  11.070  0.00  0.00    -0.265 OA
BRANCH   4   6
ATOM      6  C11 non A   1      -0.944  14.804  11.228  0.00  0.00     0.111 C 
BRANCH   6   7
ATOM      7  C10 non A   1      -0.534  15.711  12.296  0.00  0.00     0.010 C 
BRANCH   7   8
ATOM      8  C9  non A   1       0.201  15.258  13.475  0.00  0.00     0.000 C 
BRANCH   8   9
ATOM      9  C8  non A   1      -0.240  15.572  14.844  0.00  0.00     0.000 C 
BRANCH   9  10
ATOM     10  C7  non A   1      -1.563  14.901  15.169  0.00  0.00     0.000 C 
BRANCH  10  11
ATOM     11  C6  non A   1      -2.488  15.812  15.884  0.00  0.00     0.000 C 
BRANCH  11  12
ATOM     12  C5  non A   1      -3.910  15.669  15.339  0.00  0.00     0.000 C 
BRANCH  12  13
ATOM     13  C4  non A   1      -4.480  14.332  15.601  0.00  0.00     0.000 C 
BRANCH  13  14
ATOM     14  C3  non A   1      -5.685  14.316  16.448  0.00  0.00    -0.000 C 
BRANCH  14  15
ATOM     15  C2  non A   1      -7.008  14.638  15.898  0.00  0.00    -0.005 C 
ATOM     16  C1  non A   1      -7.549  15.987  16.211  0.00  0.00     0.005 C 
ENDBRANCH  14  15
ENDBRANCH  13  14
ENDBRANCH  12  13
ENDBRANCH  11  12
ENDBRANCH  10  11
ENDBRANCH   9  10
ENDBRANCH   8   9
ENDBRANCH   7   8
ENDBRANCH   6   7
ENDBRANCH   4   6
ENDBRANCH   3   4
ENDBRANCH   2   3
ENDBRANCH   1   2
BRANCH   1  17
ATOM     17  C15 non A   1      -3.300  10.812  13.358  0.00  0.00     0.217 C 
BRANCH  17  18
ATOM     18  O3  non A   1      -3.854   9.601  13.785  0.00  0.00    -0.280 OA
BRANCH  18  19
ATOM     19  P1  non A   1      -3.379   8.332  12.769  0.00  0.00     0.422 P 
ATOM     20  O4  non A   1      -3.605   6.890  13.640  0.00  0.00    -0.617 OA
ATOM     21  O5  non A   1      -4.233   8.294  11.327  0.00  0.00    -0.617 OA
ATOM     22  O6  non A   1      -1.908   8.501  12.480  0.00  0.00    -0.617 OA
ENDBRANCH  18  19
ENDBRANCH  17  18
ENDBRANCH   1  17
BRANCH   1  23
ATOM     23  O7  non A   1      -5.600  11.350  12.702  0.00  0.00    -0.312 OA
BRANCH  23  24
ATOM     24  C16 non A   1      -6.721  11.668  13.455  0.00  0.00     0.259 C 
ATOM     25  O8  non A   1      -6.607  11.346  14.688  0.00  0.00    -0.265 OA
BRANCH  24  26
ATOM     26  C17 non A   1      -7.946  12.305  12.975  0.00  0.00     0.111 C 
BRANCH  26  27
ATOM     27  C18 non A   1      -9.097  11.400  12.711  0.00  0.00     0.010 C 
BRANCH  27  28
ATOM     28  C19 non A   1     -10.417  12.107  12.781  0.00  0.00     0.000 C 
BRANCH  28  29
ATOM     29  C20 non A   1     -11.498  11.340  12.071  0.00  0.00     0.000 C 
BRANCH  29  30
ATOM     30  C21 non A   1     -12.154  12.133  10.951  0.00  0.00     0.000 C 
BRANCH  30  31
ATOM     31  C22 non A   1     -11.967  13.593  11.124  0.00  0.00     0.004 C 
BRANCH  31  32
ATOM     32  C23 non A   1     -11.421  14.285   9.904  0.00  0.00     0.027 C 
BRANCH  32  33
ATOM     33  C24 non A   1     -11.149  15.686  10.188  0.00  0.00    -0.031 C 
ATOM     34  C25 non A   1     -10.024  16.133  10.676  0.00  0.00    -0.031 C 
BRANCH  34  35
ATOM     35  C26 non A   1      -8.799  15.443  11.049  0.00  0.00     0.027 C 
BRANCH  35  36
ATOM     36  C27 non A   1      -8.237  15.939  12.332  0.00  0.00     0.004 C 
BRANCH  36  37
ATOM     37  C28 non A   1      -6.779  15.888  12.547  0.00  0.00     0.000 C 
BRANCH  37  38
ATOM     38  C29 non A   1      -6.272  17.284  12.963  0.00  0.00    -0.000 C 
BRANCH  38  39
ATOM     39  C30 non A   1      -7.314  18.344  12.761  0.00  0.00    -0.005 C 
ATOM     40  C31 non A   1      -6.612  19.700  12.895  0.00  0.00     0.005 C 
ENDBRANCH  38  39
ENDBRANCH  37  38
ENDBRANCH  36  37
ENDBRANCH  35  36
ENDBRANCH  34  35
ENDBRANCH  32  33
ENDBRANCH  31  32
ENDBRANCH  30  31
ENDBRANCH  29  30
ENDBRANCH  28  29
ENDBRANCH  27  28
ENDBRANCH  26  27
ENDBRANCH  24  26
ENDBRANCH  23  24
ENDBRANCH   1  23
TORSDOF 31
ENDMDL
