@<TRIPOS>MOLECULE

40 39 1 0 0
SMALL
NO_CHARGES


@<TRIPOS>ATOM
      1 C17        -0.8750   18.0880   -7.9730 C.3       1 non    0.1800
      2 O2         -1.8770   17.1910   -7.5530 O.3       1 non   -0.3120
      3 C16        -1.9750   16.7550   -6.2290 C.2       1 non    0.2590
      4 O1         -2.8220   17.3200   -5.5290 O.2       1 non   -0.2650
      5 C15        -1.0870   15.6730   -5.7520 C.3       1 non    0.1110
      6 C14        -1.0800   14.4750   -6.6270 C.3       1 non    0.0100
      7 C13        -1.5210   13.1940   -6.0110 C.3       1 non    0.0000
      8 C12        -1.8040   13.2780   -4.5510 C.3       1 non    0.0000
      9 C11        -3.2440   12.9550   -4.1760 C.3       1 non    0.0000
     10 C10        -4.1280   14.1480   -4.2900 C.3       1 non    0.0000
     11 C9         -4.8150   14.3310   -5.5700 C.3       1 non    0.0000
     12 C8         -6.1410   13.7960   -5.8520 C.3       1 non    0.0000
     13 C7         -6.3460   12.6730   -6.7890 C.3       1 non    0.0000
     14 C6         -5.1410   11.8380   -7.0550 C.3       1 non    0.0000
     15 C5         -5.4620   10.4180   -7.4190 C.3       1 non    0.0000
     16 C4         -5.0270    9.9920   -8.7820 C.3       1 non    0.0000
     17 C3         -4.3370   11.1180   -9.4990 C.3       1 non   -0.0000
     18 C2         -3.7820   10.6660  -10.8230 C.3       1 non   -0.0050
     19 C1         -4.4190    9.3290  -11.1850 C.3       1 non    0.0050
     20 C18         0.4610   17.4120   -8.1940 C.3       1 non    0.2130
     21 O3          0.3940   16.6060   -9.3500 O.3       1 non   -0.3190
     22 C19         1.2990   15.6500   -9.6910 C.2       1 non    0.2580
     23 O4          2.2930   15.9170  -10.3930 O.2       1 non   -0.2650
     24 C20         1.1560   14.2030   -9.2400 C.3       1 non    0.1110
     25 C21         2.0730   13.3960  -10.0870 C.3       1 non    0.0100
     26 C22         2.9310   12.4020   -9.4400 C.3       1 non    0.0000
     27 C23         3.3100   12.3020   -8.0620 C.3       1 non    0.0000
     28 C24         3.8620   13.3950   -7.2800 C.3       1 non    0.0000
     29 C25         3.6550   13.4240   -5.8000 C.3       1 non    0.0000
     30 C26         2.7860   12.2410   -5.3550 C.3       1 non    0.0000
     31 C27         1.7490   12.7030   -4.3880 C.3       1 non    0.0000
     32 C28         1.9300   14.1050   -3.8660 C.3       1 non   -0.0000
     33 C29         1.2280   14.2640   -2.5210 C.3       1 non   -0.0050
     34 C30         2.1520   15.0630   -1.6280 C.3       1 non    0.0050
     35 C31        -0.7000   19.2210   -6.9610 C.3       1 non    0.2170
     36 O5          0.6560   19.2690   -6.6360 O.3       1 non   -0.2800
     37 P1          0.7500   19.2810   -4.9410 P.3       1 non    0.4220
     38 O6          1.7670   20.5450   -4.4080 O.co2     1 non   -0.6170
     39 O7          1.3310   17.8040   -4.4100 O.co2     1 non   -0.6170
     40 O8         -0.6260   19.5660   -4.3860 O.co2     1 non   -0.6170
@<TRIPOS>BOND
     1    1    2 1
     2    1   20 1
     3    1   35 1
     4    2    3 1
     5    3    4 2
     6    3    5 1
     7    5    6 1
     8    6    7 1
     9    7    8 1
    10    8    9 1
    11    9   10 1
    12   10   11 1
    13   11   12 1
    14   12   13 1
    15   13   14 1
    16   14   15 1
    17   15   16 1
    18   16   17 1
    19   17   18 1
    20   18   19 1
    21   20   21 1
    22   21   22 1
    23   22   23 2
    24   22   24 1
    25   24   25 1
    26   25   26 1
    27   26   27 1
    28   27   28 1
    29   28   29 1
    30   29   30 1
    31   30   31 1
    32   31   32 1
    33   32   33 1
    34   33   34 1
    35   35   36 1
    36   36   37 1
    37   37   38 1
    38   37   39 1
    39   37   40 1
@<TRIPOS>SUBSTRUCTURE
     1 non     1 RESIDUE           4 A     non     0 ROOT
