@<TRIPOS>MOLECULE

42 41 1 0 0
SMALL
NO_CHARGES


@<TRIPOS>ATOM
      1 C17        -0.4150   18.5710   -5.4900 C.3       1 non    0.1800
      2 O2          0.6290   18.4880   -4.5480 O.3       1 non   -0.3120
      3 C16         1.8770   19.0860   -4.7040 C.2       1 non    0.2590
      4 O1          2.0610   19.7310   -5.7780 O.2       1 non   -0.2650
      5 C15         2.9100   18.9540   -3.6600 C.3       1 non    0.1110
      6 C14         4.0380   18.0830   -4.0610 C.3       1 non    0.0100
      7 C13         3.7700   16.6170   -4.0980 C.3       1 non    0.0000
      8 C12         3.6770   15.9030   -2.8050 C.3       1 non    0.0000
      9 C11         2.2370   15.5350   -2.4580 C.3       1 non    0.0000
     10 C10         1.7840   14.2800   -3.1330 C.3       1 non    0.0000
     11 C9          0.2810   14.3770   -3.3790 C.3       1 non    0.0000
     12 C8         -0.0830   13.9850   -4.7770 C.3       1 non    0.0000
     13 C7          1.1200   13.7020   -5.6260 C.3       1 non    0.0000
     14 C6          0.9150   12.2740   -6.2270 C.3       1 non    0.0000
     15 C5          1.7530   12.1270   -7.4320 C.3       1 non    0.0000
     16 C4          1.7020   10.8860   -8.1910 C.3       1 non    0.0000
     17 C3          2.4220    9.6690   -7.8390 C.3       1 non   -0.0000
     18 C2          3.9040    9.6570   -7.7690 C.3       1 non   -0.0050
     19 C1          4.4870    9.1160   -9.1060 C.3       1 non    0.0050
     20 C18        -1.6460   19.1330   -4.8410 C.3       1 non    0.2130
     21 O3         -2.5900   18.1790   -4.4410 O.3       1 non   -0.3190
     22 C19        -3.9030   18.1410   -4.8440 C.2       1 non    0.2580
     23 O4         -4.4130   19.1740   -5.3370 O.2       1 non   -0.2650
     24 C20        -4.7070   16.9110   -4.7040 C.3       1 non    0.1110
     25 C21        -3.8720   15.6800   -4.5830 C.3       1 non    0.0100
     26 C22        -4.6590   14.4020   -4.5760 C.3       1 non    0.0000
     27 C23        -4.0440   13.3330   -5.4070 C.3       1 non    0.0000
     28 C24        -4.8540   12.8300   -6.5480 C.3       1 non    0.0000
     29 C25        -4.0040   12.3480   -7.7060 C.3       1 non    0.0040
     30 C26        -4.4680   10.9150   -8.0110 C.3       1 non    0.0270
     31 C27        -5.7800   10.6410   -7.4200 C.2       1 non   -0.0310
     32 C28        -6.4250    9.5340   -7.6830 C.2       1 non   -0.0310
     33 C29        -6.0050    8.4310   -8.5510 C.3       1 non    0.0270
     34 C30        -6.7630    8.3860   -9.8670 C.3       1 non    0.0030
     35 C31        -5.9220    8.8610  -11.0320 C.3       1 non   -0.0040
     36 C32        -5.0440    7.6930  -11.4460 C.3       1 non    0.0050
     37 C33        -0.6600   17.1210   -5.9240 C.3       1 non    0.2170
     38 O5          0.0900   16.8120   -7.0520 O.3       1 non   -0.2800
     39 P1         -0.8390   16.0320   -8.2250 P.3       1 non    0.4220
     40 O6          0.0220   14.7890   -8.9820 O.co2     1 non   -0.6170
     41 O7         -1.3740   17.1850   -9.3180 O.co2     1 non   -0.6170
     42 O8         -2.0530   15.4320   -7.5460 O.co2     1 non   -0.6170
@<TRIPOS>BOND
     1    1    2 1
     2    1   20 1
     3    1   37 1
     4    2    3 1
     5    3    4 2
     6    3    5 1
     7    5    6 1
     8    6    7 1
     9    7    8 1
    10    8    9 1
    11    9   10 1
    12   10   11 1
    13   11   12 1
    14   12   13 1
    15   13   14 1
    16   14   15 1
    17   15   16 1
    18   16   17 1
    19   17   18 1
    20   18   19 1
    21   20   21 1
    22   21   22 1
    23   22   23 2
    24   22   24 1
    25   24   25 1
    26   25   26 1
    27   26   27 1
    28   27   28 1
    29   28   29 1
    30   29   30 1
    31   30   31 1
    32   31   32 2
    33   32   33 1
    34   33   34 1
    35   34   35 1
    36   35   36 1
    37   37   38 1
    38   38   39 1
    39   39   40 1
    40   39   41 1
    41   39   42 1
@<TRIPOS>SUBSTRUCTURE
     1 non     1 RESIDUE           4 A     non     0 ROOT
