@<TRIPOS>MOLECULE

40 39 1 0 0
SMALL
NO_CHARGES


@<TRIPOS>ATOM
      1 C14        -4.6980   19.5180   -4.7160 C.3       1 non    0.1800
      2 C13        -3.2580   20.0600   -4.7760 C.3       1 non    0.2130
      3 O2         -2.8870   19.9610   -6.1370 O.3       1 non   -0.3190
      4 C12        -1.6390   19.4120   -6.5200 C.2       1 non    0.2580
      5 O1         -1.2670   19.8040   -7.6340 O.2       1 non   -0.2650
      6 C11        -0.9150   18.5020   -5.6640 C.3       1 non    0.1110
      7 C10         0.5420   18.4580   -5.6000 C.3       1 non    0.0100
      8 C9          1.2670   17.4510   -4.8280 C.3       1 non    0.0000
      9 C8          0.6240   16.2160   -4.3490 C.3       1 non    0.0000
     10 C7          1.6480   15.2200   -3.8360 C.3       1 non    0.0000
     11 C6          1.2170   14.5790   -2.5700 C.3       1 non    0.0000
     12 C5          2.2790   14.7660   -1.4850 C.3       1 non    0.0000
     13 C4          2.6370   16.1840   -1.2880 C.3       1 non    0.0000
     14 C3          4.0570   16.5120   -1.5010 C.3       1 non   -0.0000
     15 C2          4.4820   17.3830   -2.6030 C.3       1 non   -0.0050
     16 C1          3.8330   18.7180   -2.6850 C.3       1 non    0.0050
     17 C15        -5.5160   20.5190   -4.0000 C.3       1 non    0.2170
     18 O3         -6.3400   21.2650   -4.8470 O.3       1 non   -0.2800
     19 P1         -7.1770   22.4540   -3.9760 P.3       1 non    0.4220
     20 O4         -6.1190   23.7720   -3.7960 O.co2     1 non   -0.6170
     21 O5         -8.6000   22.9320   -4.7240 O.co2     1 non   -0.6170
     22 O6         -7.4890   21.8890   -2.6130 O.co2     1 non   -0.6170
     23 O7         -4.6620   18.2270   -4.1790 O.3       1 non   -0.3120
     24 C16        -4.9780   17.0860   -4.9030 C.2       1 non    0.2590
     25 O8         -6.2290   16.8170   -4.8980 O.2       1 non   -0.2650
     26 C17        -4.0460   16.2230   -5.6250 C.3       1 non    0.1110
     27 C18        -3.0150   15.5350   -4.8010 C.3       1 non    0.0100
     28 C19        -3.5970   14.4820   -3.9070 C.3       1 non    0.0000
     29 C20        -4.1870   13.3460   -4.6950 C.3       1 non    0.0000
     30 C21        -3.1350   12.4610   -5.3440 C.3       1 non    0.0000
     31 C22        -1.9980   12.1930   -4.4310 C.3       1 non    0.0040
     32 C23        -0.6570   12.5630   -5.0050 C.3       1 non    0.0270
     33 C24        -0.5860   12.2030   -6.4130 C.2       1 non   -0.0310
     34 C25         0.2350   12.7460   -7.2700 C.2       1 non   -0.0310
     35 C26         1.2450   13.7800   -7.1080 C.3       1 non    0.0270
     36 C27         2.5100   13.4530   -7.8160 C.3       1 non    0.0040
     37 C28         3.4170   12.4430   -7.2410 C.3       1 non    0.0000
     38 C29         3.5060   12.6420   -5.7140 C.3       1 non   -0.0000
     39 C30         4.0800   11.4410   -5.0230 C.3       1 non   -0.0050
     40 C31         4.9920   10.7320   -6.0310 C.3       1 non    0.0050
@<TRIPOS>BOND
     1    1    2 1
     2    1   17 1
     3    1   23 1
     4    2    3 1
     5    3    4 1
     6    4    5 2
     7    4    6 1
     8    6    7 1
     9    7    8 1
    10    8    9 1
    11    9   10 1
    12   10   11 1
    13   11   12 1
    14   12   13 1
    15   13   14 1
    16   14   15 1
    17   15   16 1
    18   17   18 1
    19   18   19 1
    20   19   20 1
    21   19   21 1
    22   19   22 1
    23   23   24 1
    24   24   25 2
    25   24   26 1
    26   26   27 1
    27   27   28 1
    28   28   29 1
    29   29   30 1
    30   30   31 1
    31   31   32 1
    32   32   33 1
    33   33   34 2
    34   34   35 1
    35   35   36 1
    36   36   37 1
    37   37   38 1
    38   38   39 1
    39   39   40 1
@<TRIPOS>SUBSTRUCTURE
     1 non     1 RESIDUE           4 A     non     0 ROOT
