@<TRIPOS>MOLECULE

42 41 1 0 0
SMALL
NO_CHARGES


@<TRIPOS>ATOM
      1 C16         7.3990   10.5430  -12.3190 C.3       1 non    0.1800
      2 C15         5.9760   10.6290  -12.7910 C.3       1 non    0.2130
      3 O2          5.6220   11.7850  -13.4650 O.3       1 non   -0.3190
      4 C14         4.3660   12.1660  -13.8680 C.2       1 non    0.2580
      5 O1          4.1210   12.2630  -15.0900 O.2       1 non   -0.2650
      6 C13         3.2670   12.4770  -12.8850 C.3       1 non    0.1110
      7 C12         2.2380   11.4120  -13.0530 C.3       1 non    0.0100
      8 C11         2.2930   10.3130  -11.9960 C.3       1 non    0.0000
      9 C10         1.2620   10.4810  -10.9520 C.3       1 non    0.0000
     10 C9         -0.1240   10.1600  -11.3240 C.3       1 non    0.0000
     11 C8         -1.2260   11.0840  -11.4790 C.3       1 non    0.0000
     12 C7         -2.1220   11.3130  -12.5850 C.3       1 non    0.0000
     13 C6         -1.9490   12.3890  -13.5680 C.3       1 non    0.0000
     14 C5         -0.9830   12.0410  -14.6900 C.3       1 non    0.0000
     15 C4         -1.0450   10.5940  -15.0970 C.3       1 non    0.0000
     16 C3          0.1630   10.1570  -15.8740 C.3       1 non   -0.0000
     17 C2          0.5080    8.7080  -15.6590 C.3       1 non   -0.0050
     18 C1         -0.1550    8.2570  -14.3780 C.3       1 non    0.0050
     19 C17         7.6090    9.3460  -11.4010 C.3       1 non    0.2170
     20 O3          6.4200    8.7080  -11.1030 O.3       1 non   -0.2800
     21 P1          6.2320    8.7840   -9.4030 P.3       1 non    0.4220
     22 O4          4.7660    8.1230   -8.9460 O.co2     1 non   -0.6170
     23 O5          7.5100    7.8830   -8.7370 O.co2     1 non   -0.6170
     24 O6          6.4140   10.2060   -8.9010 O.co2     1 non   -0.6170
     25 O7          7.6250   11.7560  -11.5780 O.3       1 non   -0.3120
     26 C18         8.9020   12.1440  -11.1690 C.2       1 non    0.2590
     27 O8          9.7420   12.4190  -12.0330 O.2       1 non   -0.2650
     28 C19         9.1550   12.2020   -9.7380 C.3       1 non    0.1110
     29 C20        10.4650   11.6430   -9.3370 C.3       1 non    0.0100
     30 C21        10.4540   10.5030   -8.4070 C.3       1 non    0.0000
     31 C22        11.6690   10.1570   -7.6180 C.3       1 non    0.0000
     32 C23        12.2480   11.5270   -7.1350 C.3       1 non    0.0000
     33 C24        12.1760   11.5670   -5.6380 C.3       1 non    0.0040
     34 C25        11.1100   12.5520   -5.1670 C.3       1 non    0.0270
     35 C26        10.8560   13.5350   -6.2270 C.2       1 non   -0.0310
     36 C27         9.6560   14.0390   -6.4360 C.2       1 non   -0.0310
     37 C28         8.4210   13.7410   -5.7090 C.3       1 non    0.0270
     38 C29         7.8290   12.4760   -6.3340 C.3       1 non    0.0040
     39 C30         6.5690   12.0770   -5.6430 C.3       1 non    0.0000
     40 C31         6.8070   11.5310   -4.2740 C.3       1 non   -0.0000
     41 C32         7.8530   10.4170   -4.3220 C.3       1 non   -0.0050
     42 C33         8.7110   10.5700   -3.0780 C.3       1 non    0.0050
@<TRIPOS>BOND
     1    1    2 1
     2    1   19 1
     3    1   25 1
     4    2    3 1
     5    3    4 1
     6    4    5 2
     7    4    6 1
     8    6    7 1
     9    7    8 1
    10    8    9 1
    11    9   10 1
    12   10   11 1
    13   11   12 1
    14   12   13 1
    15   13   14 1
    16   14   15 1
    17   15   16 1
    18   16   17 1
    19   17   18 1
    20   19   20 1
    21   20   21 1
    22   21   22 1
    23   21   23 1
    24   21   24 1
    25   25   26 1
    26   26   27 2
    27   26   28 1
    28   28   29 1
    29   29   30 1
    30   30   31 1
    31   31   32 1
    32   32   33 1
    33   33   34 1
    34   34   35 1
    35   35   36 2
    36   36   37 1
    37   37   38 1
    38   38   39 1
    39   39   40 1
    40   40   41 1
    41   41   42 1
@<TRIPOS>SUBSTRUCTURE
     1 non     1 RESIDUE           4 A     non     0 ROOT
