REMARK  31 active torsions:
REMARK  status: ('A' for Active; 'I' for Inactive)
REMARK    1  A    between atoms: C2_2  and  C3_3 
REMARK    2  A    between atoms: C3_3  and  C4_4 
REMARK    3  A    between atoms: C4_4  and  C5_5 
REMARK    4  A    between atoms: C5_5  and  C6_6 
REMARK    5  A    between atoms: C6_6  and  C7_7 
REMARK    6  A    between atoms: C7_7  and  C8_8 
REMARK    7  A    between atoms: C8_8  and  C9_9 
REMARK    8  A    between atoms: C9_9  and  C10_10 
REMARK    9  A    between atoms: C10_10  and  C11_11 
REMARK   10  A    between atoms: C11_11  and  C12_12 
REMARK   11  A    between atoms: C12_12  and  O2_14 
REMARK   12  A    between atoms: O2_14  and  C13_15 
REMARK   13  A    between atoms: C13_15  and  C14_16 
REMARK   14  A    between atoms: C14_16  and  C15_17 
REMARK   15  A    between atoms: C14_16  and  O7_23 
REMARK   16  A    between atoms: C15_17  and  O3_18 
REMARK   17  A    between atoms: O3_18  and  P1_19 
REMARK   18  A    between atoms: O7_23  and  C16_24 
REMARK   19  A    between atoms: C16_24  and  C17_26 
REMARK   20  A    between atoms: C17_26  and  C18_27 
REMARK   21  A    between atoms: C18_27  and  C19_28 
REMARK   22  A    between atoms: C19_28  and  C20_29 
REMARK   23  A    between atoms: C20_29  and  C21_30 
REMARK   24  A    between atoms: C21_30  and  C22_31 
REMARK   25  A    between atoms: C22_31  and  C23_32 
REMARK   26  A    between atoms: C23_32  and  C24_33 
REMARK   27  A    between atoms: C25_34  and  C26_35 
REMARK   28  A    between atoms: C26_35  and  C27_36 
REMARK   29  A    between atoms: C27_36  and  C28_37 
REMARK   30  A    between atoms: C28_37  and  C29_38 
REMARK   31  A    between atoms: C29_38  and  C30_39 
ROOT
ATOM      1  C14 non d   1       0.142   1.065   1.087  0.00  0.00     0.180 C 
ENDROOT
BRANCH   1   2
ATOM      2  C13 non d   1      -1.363   0.830   1.311  0.00  0.00     0.213 C 
BRANCH   2   3
ATOM      3  O2  non d   1      -1.982   2.047   0.944  0.00  0.00    -0.319 OA
BRANCH   3   4
ATOM      4  C12 non d   1      -3.384   2.218   1.045  0.00  0.00     0.258 C 
ATOM      5  O1  non d   1      -3.959   1.208   1.472  0.00  0.00    -0.265 OA
BRANCH   4   6
ATOM      6  C11 non d   1      -4.025   3.459   0.680  0.00  0.00     0.111 C 
BRANCH   6   7
ATOM      7  C10 non d   1      -5.472   3.648   0.716  0.00  0.00     0.010 C 
BRANCH   7   8
ATOM      8  C9  non d   1      -6.387   2.891  -0.136  0.00  0.00     0.000 C 
BRANCH   8   9
ATOM      9  C8  non d   1      -6.554   1.434  -0.009  0.00  0.00     0.000 C 
BRANCH   9  10
ATOM     10  C7  non d   1      -7.107   1.055   1.353  0.00  0.00     0.000 C 
BRANCH  10  11
ATOM     11  C6  non d   1      -7.247  -0.413   1.509  0.00  0.00     0.000 C 
BRANCH  11  12
ATOM     12  C5  non d   1      -8.199  -0.976   0.453  0.00  0.00     0.000 C 
BRANCH  12  13
ATOM     13  C4  non d   1      -9.562  -0.422   0.573  0.00  0.00     0.000 C 
BRANCH  13  14
ATOM     14  C3  non d   1     -10.548  -0.961  -0.380  0.00  0.00    -0.000 C 
BRANCH  14  15
ATOM     15  C2  non d   1     -10.383  -0.787  -1.828  0.00  0.00    -0.005 C 
ATOM     16  C1  non d   1      -9.193  -1.431  -2.445  0.00  0.00     0.005 C 
ENDBRANCH  14  15
ENDBRANCH  13  14
ENDBRANCH  12  13
ENDBRANCH  11  12
ENDBRANCH  10  11
ENDBRANCH   9  10
ENDBRANCH   8   9
ENDBRANCH   7   8
ENDBRANCH   6   7
ENDBRANCH   4   6
ENDBRANCH   3   4
ENDBRANCH   2   3
ENDBRANCH   1   2
BRANCH   1  17
ATOM     17  C15 non d   1       0.312   1.543  -0.301  0.00  0.00     0.217 C 
BRANCH  17  18
ATOM     18  O3  non d   1       1.639   1.846  -0.621  0.00  0.00    -0.280 OA
BRANCH  18  19
ATOM     19  P1  non d   1       1.762   2.384  -2.223  0.00  0.00     0.422 P 
ATOM     20  O4  non d   1       0.904   1.275  -3.184  0.00  0.00    -0.617 OA
ATOM     21  O5  non d   1       1.171   3.938  -2.438  0.00  0.00    -0.617 OA
ATOM     22  O6  non d   1       3.219   2.340  -2.611  0.00  0.00    -0.617 OA
ENDBRANCH  18  19
ENDBRANCH  17  18
ENDBRANCH   1  17
BRANCH   1  23
ATOM     23  O7  non d   1       0.829  -0.099   1.445  0.00  0.00    -0.312 OA
BRANCH  23  24
ATOM     24  C16 non d   1       1.716  -0.170   2.510  0.00  0.00     0.259 C 
ATOM     25  O8  non d   1       1.842   0.939   3.135  0.00  0.00    -0.265 OA
BRANCH  24  26
ATOM     26  C17 non d   1       2.469  -1.345   2.944  0.00  0.00     0.111 C 
BRANCH  26  27
ATOM     27  C18 non d   1       2.349  -2.555   2.086  0.00  0.00     0.010 C 
BRANCH  27  28
ATOM     28  C19 non d   1       2.817  -2.317   0.681  0.00  0.00     0.000 C 
BRANCH  28  29
ATOM     29  C20 non d   1       4.258  -1.889   0.639  0.00  0.00     0.000 C 
BRANCH  29  30
ATOM     30  C21 non d   1       5.202  -2.915   1.246  0.00  0.00     0.000 C 
BRANCH  30  31
ATOM     31  C22 non d   1       5.172  -4.200   0.508  0.00  0.00     0.004 C 
BRANCH  31  32
ATOM     32  C23 non d   1       5.676  -4.101  -0.906  0.00  0.00     0.027 C 
BRANCH  32  33
ATOM     33  C24 non d   1       7.087  -3.744  -0.923  0.00  0.00    -0.031 C 
ATOM     34  C25 non d   1       7.576  -2.709  -1.550  0.00  0.00    -0.031 C 
BRANCH  34  35
ATOM     35  C26 non d   1       6.931  -1.679  -2.349  0.00  0.00     0.027 C 
BRANCH  35  36
ATOM     36  C27 non d   1       7.268  -0.308  -1.885  0.00  0.00     0.004 C 
BRANCH  36  37
ATOM     37  C28 non d   1       6.886   0.105  -0.522  0.00  0.00     0.000 C 
BRANCH  37  38
ATOM     38  C29 non d   1       7.387   1.540  -0.260  0.00  0.00    -0.000 C 
BRANCH  38  39
ATOM     39  C30 non d   1       8.882   1.635  -0.333  0.00  0.00    -0.005 C 
ATOM     40  C31 non d   1       9.258   3.092  -0.038  0.00  0.00     0.005 C 
ENDBRANCH  38  39
ENDBRANCH  37  38
ENDBRANCH  36  37
ENDBRANCH  35  36
ENDBRANCH  34  35
ENDBRANCH  32  33
ENDBRANCH  31  32
ENDBRANCH  30  31
ENDBRANCH  29  30
ENDBRANCH  28  29
ENDBRANCH  27  28
ENDBRANCH  26  27
ENDBRANCH  24  26
ENDBRANCH  23  24
ENDBRANCH   1  23
TORSDOF 31
