REMARK WARNING: 32 MAX_TORS EXCEEDED!!!
REMARK  35 active torsions:
REMARK  status: ('A' for Active; 'I' for Inactive)
REMARK    1  A    between atoms: C1_1  and  C2_2 
REMARK    2  A    between atoms: C1_1  and  C19_21 
REMARK    3  A    between atoms: C1_1  and  O7_27 
REMARK    4  A    between atoms: C2_2  and  O1_3 
REMARK    5  A    between atoms: O1_3  and  C3_4 
REMARK    6  A    between atoms: C3_4  and  C4_6 
REMARK    7  A    between atoms: C4_6  and  C5_7 
REMARK    8  A    between atoms: C5_7  and  C6_8 
REMARK    9  A    between atoms: C6_8  and  C7_9 
REMARK   10  A    between atoms: C7_9  and  C8_10 
REMARK   11  A    between atoms: C8_10  and  C9_11 
REMARK   12  A    between atoms: C9_11  and  C10_12 
REMARK   13  A    between atoms: C10_12  and  C11_13 
REMARK   14  A    between atoms: C11_13  and  C12_14 
REMARK   15  A    between atoms: C12_14  and  C13_15 
REMARK   16  A    between atoms: C13_15  and  C14_16 
REMARK   17  A    between atoms: C14_16  and  C15_17 
REMARK   18  A    between atoms: C15_17  and  C16_18 
REMARK   19  A    between atoms: C16_18  and  C17_19 
REMARK   20  A    between atoms: C19_21  and  O3_22 
REMARK   21  A    between atoms: O3_22  and  P1_23 
REMARK   22  A    between atoms: O7_27  and  C20_28 
REMARK   23  A    between atoms: C21_30  and  C22_31 
REMARK   24  A    between atoms: C22_31  and  C23_32 
REMARK   25  A    between atoms: C23_32  and  C24_33 
REMARK   26  A    between atoms: C24_33  and  C25_34 
REMARK   27  A    between atoms: C25_34  and  C26_35 
REMARK   28  A    between atoms: C26_35  and  C27_36 
REMARK   29  A    between atoms: C27_36  and  C28_37 
REMARK   30  A    between atoms: C28_37  and  C29_38 
REMARK   31  A    between atoms: C29_38  and  C30_39 
REMARK   32  A    between atoms: C30_39  and  C31_40 
REMARK   33  A    between atoms: C31_40  and  C32_41 
REMARK   34  A    between atoms: C32_41  and  C33_42 
REMARK   35  A    between atoms: C33_42  and  C34_43 
ROOT
ATOM      1  C1  non d   1       0.964  -0.976   1.453  0.00  0.00     0.174 C 
ENDROOT
BRANCH   1   2
ATOM      2  C2  non d   1       1.478  -1.186   0.016  0.00  0.00     0.213 C 
BRANCH   2   3
ATOM      3  O1  non d   1       0.577  -0.552  -0.848  0.00  0.00    -0.319 OA
BRANCH   3   4
ATOM      4  C3  non d   1      -0.739  -0.894  -0.977  0.00  0.00     0.258 C 
ATOM      5  O2  non d   1      -1.210  -1.836  -0.307  0.00  0.00    -0.265 OA
BRANCH   4   6
ATOM      6  C4  non d   1      -1.579  -0.104  -1.934  0.00  0.00     0.111 C 
BRANCH   6   7
ATOM      7  C5  non d   1      -3.055  -0.422  -1.783  0.00  0.00     0.010 C 
BRANCH   7   8
ATOM      8  C6  non d   1      -3.546  -0.053  -0.394  0.00  0.00     0.000 C 
BRANCH   8   9
ATOM      9  C7  non d   1      -3.372   1.428  -0.134  0.00  0.00     0.000 C 
BRANCH   9  10
ATOM     10  C8  non d   1      -4.171   2.297  -1.081  0.00  0.00     0.000 C 
BRANCH  10  11
ATOM     11  C9  non d   1      -5.652   1.942  -0.855  0.00  0.00     0.000 C 
BRANCH  11  12
ATOM     12  C10 non d   1      -6.568   2.739  -1.725  0.00  0.00     0.000 C 
BRANCH  12  13
ATOM     13  C11 non d   1      -7.995   2.529  -1.426  0.00  0.00     0.000 C 
BRANCH  13  14
ATOM     14  C12 non d   1      -8.634   1.219  -1.504  0.00  0.00     0.000 C 
BRANCH  14  15
ATOM     15  C13 non d   1      -8.251   0.119  -0.604  0.00  0.00     0.000 C 
BRANCH  15  16
ATOM     16  C14 non d   1      -9.093  -1.153  -0.839  0.00  0.00     0.000 C 
BRANCH  16  17
ATOM     17  C15 non d   1     -10.546  -0.954  -0.584  0.00  0.00     0.000 C 
BRANCH  17  18
ATOM     18  C16 non d   1     -11.300  -2.254  -0.820  0.00  0.00    -0.000 C 
BRANCH  18  19
ATOM     19  C17 non d   1     -12.776  -2.071  -0.556  0.00  0.00    -0.005 C 
ATOM     20  C18 non d   1     -13.392  -1.024  -1.446  0.00  0.00     0.005 C 
ENDBRANCH  18  19
ENDBRANCH  17  18
ENDBRANCH  16  17
ENDBRANCH  15  16
ENDBRANCH  14  15
ENDBRANCH  13  14
ENDBRANCH  12  13
ENDBRANCH  11  12
ENDBRANCH  10  11
ENDBRANCH   9  10
ENDBRANCH   8   9
ENDBRANCH   7   8
ENDBRANCH   6   7
ENDBRANCH   4   6
ENDBRANCH   3   4
ENDBRANCH   2   3
ENDBRANCH   1   2
BRANCH   1  21
ATOM     21  C19 non d   1       0.799   0.491   1.637  0.00  0.00     0.216 C 
BRANCH  21  22
ATOM     22  O3  non d   1       0.302   0.889   2.864  0.00  0.00    -0.280 OA
BRANCH  22  23
ATOM     23  P1  non d   1       0.166   2.574   2.953  0.00  0.00     0.422 P 
ATOM     24  O4  non d   1      -0.884   3.088   4.149  0.00  0.00    -0.617 OA
ATOM     25  O5  non d   1      -0.260   3.272   1.494  0.00  0.00    -0.617 OA
ATOM     26  O6  non d   1       1.564   3.088   3.302  0.00  0.00    -0.617 OA
ENDBRANCH  22  23
ENDBRANCH  21  22
ENDBRANCH   1  21
BRANCH   1  27
ATOM     27  O7  non d   1       1.845  -1.593   2.383  0.00  0.00    -0.339 OA
BRANCH  27  28
ATOM     28  C20 non d   1       1.537  -2.730   3.071  0.00  0.00     0.257 C 
ATOM     29  O8  non d   1       0.341  -3.187   2.762  0.00  0.00    -0.191 OA
ATOM     30  C21 non d   1       2.259  -3.506   4.054  0.00  0.00     0.078 C 
BRANCH  30  31
ATOM     31  C22 non d   1       3.599  -3.188   4.527  0.00  0.00     0.006 C 
BRANCH  31  32
ATOM     32  C23 non d   1       4.778  -3.173   3.678  0.00  0.00     0.000 C 
BRANCH  32  33
ATOM     33  C24 non d   1       4.900  -2.173   2.557  0.00  0.00     0.000 C 
BRANCH  33  34
ATOM     34  C25 non d   1       4.854  -0.780   3.097  0.00  0.00     0.000 C 
BRANCH  34  35
ATOM     35  C26 non d   1       4.931   0.374   2.201  0.00  0.00     0.000 C 
BRANCH  35  36
ATOM     36  C27 non d   1       6.151   0.735   1.460  0.00  0.00     0.000 C 
BRANCH  36  37
ATOM     37  C28 non d   1       6.714  -0.240   0.522  0.00  0.00     0.000 C 
BRANCH  37  38
ATOM     38  C29 non d   1       7.923   0.334  -0.245  0.00  0.00     0.000 C 
BRANCH  38  39
ATOM     39  C30 non d   1       7.582   1.511  -1.089  0.00  0.00     0.000 C 
BRANCH  39  40
ATOM     40  C31 non d   1       8.832   2.005  -1.755  0.00  0.00     0.000 C 
BRANCH  40  41
ATOM     41  C32 non d   1       9.528   0.987  -2.612  0.00  0.00     0.000 C 
BRANCH  41  42
ATOM     42  C33 non d   1      10.763   1.696  -3.183  0.00  0.00    -0.000 C 
BRANCH  42  43
ATOM     43  C34 non d   1      11.562   0.758  -4.048  0.00  0.00    -0.005 C 
ATOM     44  C35 non d   1      12.019  -0.418  -3.195  0.00  0.00     0.005 C 
ENDBRANCH  42  43
ENDBRANCH  41  42
ENDBRANCH  40  41
ENDBRANCH  39  40
ENDBRANCH  38  39
ENDBRANCH  37  38
ENDBRANCH  36  37
ENDBRANCH  35  36
ENDBRANCH  34  35
ENDBRANCH  33  34
ENDBRANCH  32  33
ENDBRANCH  31  32
ENDBRANCH  30  31
ENDBRANCH  27  28
ENDBRANCH   1  27
TORSDOF 35
