@<TRIPOS>MOLECULE

103 102 1
SMALL
USER_CHARGES
@<TRIPOS>ATOM
1	C1   -12.9770     0.8426     3.0878	C.3	1	noname	-0.0654
2	C2   -11.8495     1.4955     2.3211	C.3	1	noname	-0.0561
3	C3   -12.0814     1.2463     0.8545	C.3	1	noname	-0.0535
4	C4   -11.0162     1.8456    -0.0166	C.3	1	noname	-0.0533
5	C5    -9.6447     1.3033     0.2822	C.3	1	noname	-0.0533
6	C6    -9.5397    -0.2011     0.0820	C.3	1	noname	-0.0533
7	C7    -9.8260    -0.6343    -1.2895	C.3	1	noname	-0.0533
8	C8    -9.0864    -0.1880    -2.4442	C.3	1	noname	-0.0533
9	C9    -7.7353    -0.4729    -2.8749	C.3	1	noname	-0.0533
10	C10    -6.4947    -0.2735    -2.1089	C.3	1	noname	-0.0533
11	C11    -6.2351    -1.2103    -0.9974	C.3	1	noname	-0.0528
12	C12    -4.9459    -0.8839    -0.2487	C.3	1	noname	-0.0439
13	C13    -3.7165    -0.9467    -1.0888	C.3	1	noname	0.0337
14	C14    -2.5620    -0.6079    -0.1807	C.2	1	noname	0.1407
15	O1    -2.1734     0.5789    -0.1257	O.2	1	noname	-0.2540
16	O2    -1.9311    -1.5562     0.5849	O.3	1	noname	-0.2051
17	C15    -0.8729    -1.3667     1.4576	C.3	1	noname	0.0855
18	C16     0.4021    -0.8501     0.8564	C.3	1	noname	0.1138
19	C17     0.9688    -1.8257    -0.1672	C.3	1	noname	0.0721
20	O3     0.1317    -1.9782    -1.2565	O.3	1	noname	-0.3095
21	P1     0.8936    -3.0913    -2.3105	P	1	noname	-0.2980
22	O4     0.0125    -4.5098    -2.3977	O.3	1	noname	-0.5247
23	O5     0.9506    -2.3465    -3.8372	O.3	1	noname	-0.5247
24	O6     2.3377    -3.3230    -1.9023	O.2	1	noname	-0.5247
25	O7     1.3189    -0.7304     1.9578	O.3	1	noname	-0.2013
26	C18     1.9696     0.4700     2.2499	C.2	1	noname	0.1421
27	O8     1.7542     1.4504     1.5303	O.2	1	noname	-0.2537
28	C19     2.8648     0.4807     3.3968	C.3	1	noname	0.0337
29	C20     3.8422     1.5917     3.3851	C.3	1	noname	-0.0439
30	C21     4.8857     1.5578     2.3488	C.3	1	noname	-0.0528
31	C22     4.5212     1.5839     0.9052	C.3	1	noname	-0.0533
32	C23     5.8814     1.5251     0.1370	C.3	1	noname	-0.0530
33	C24     5.5935     1.5597    -1.3339	C.3	1	noname	-0.0498
34	C25     6.8814     1.4663    -2.1469	C.3	1	noname	-0.0350
35	C26     7.5590     0.2019    -1.8357	C.2	1	noname	-0.0885
36	C27     8.7753     0.1705    -1.3283	C.2	1	noname	-0.0885
37	C28     9.6364     1.3074    -0.9970	C.3	1	noname	-0.0350
38	C29     9.9263     1.2248     0.5043	C.3	1	noname	-0.0498
39	C30    10.5907    -0.0641     0.8511	C.3	1	noname	-0.0530
40	C31    11.8892    -0.2546     0.1398	C.3	1	noname	-0.0535
41	C32    12.5219    -1.5880     0.5395	C.3	1	noname	-0.0561
42	C33    13.8270    -1.6987    -0.2294	C.3	1	noname	-0.0654
43	H1   -12.7970     0.9469     4.1578	H	1	noname	0.0230
44	H2   -13.9195     1.3253     2.8292	H	1	noname	0.0230
45	H3   -13.0275    -0.2151     2.8292	H	1	noname	0.0230
46	H4   -11.9328     2.5707     2.4795	H	1	noname	0.0264
47	H5   -10.9315     0.9742     2.5924	H	1	noname	0.0264
48	H6   -12.0099     0.1674     0.7164	H	1	noname	0.0266
49	H7   -13.0044     1.7682     0.6017	H	1	noname	0.0266
50	H8   -11.2496     1.5337    -1.0346	H	1	noname	0.0266
51	H9   -10.9836     2.9058     0.2346	H	1	noname	0.0266
52	H10    -8.9803     1.7551    -0.4544	H	1	noname	0.0266
53	H11    -9.4809     1.4806     1.3451	H	1	noname	0.0266
54	H12    -8.4960    -0.4652     0.2525	H	1	noname	0.0266
55	H13   -10.3225    -0.6512     0.6925	H	1	noname	0.0266
56	H14    -9.6366    -1.7076    -1.2723	H	1	noname	0.0266
57	H15   -10.8325    -0.2615    -1.4794	H	1	noname	0.0266
58	H16    -9.6775    -0.6000    -3.2621	H	1	noname	0.0266
59	H17    -9.0521     0.8899    -2.2856	H	1	noname	0.0266
60	H18    -7.7626    -1.5513    -3.0311	H	1	noname	0.0266
61	H19    -7.6150     0.1981    -3.7254	H	1	noname	0.0266
62	H20    -5.6897    -0.4469    -2.8230	H	1	noname	0.0266
63	H21    -6.6055     0.7039    -1.6393	H	1	noname	0.0266
64	H22    -7.0536    -1.0612    -0.2931	H	1	noname	0.0267
65	H23    -6.0888    -2.1841    -1.4648	H	1	noname	0.0267
66	H24    -5.0294     0.1579     0.0607	H	1	noname	0.0272
67	H25    -4.8225    -1.6665     0.4999	H	1	noname	0.0272
68	H26    -3.5941    -1.9825    -1.4053	H	1	noname	0.0372
69	H27    -3.7935    -0.1547    -1.8337	H	1	noname	0.0372
70	H28    -1.2365    -0.5974     2.1388	H	1	noname	0.0601
71	H29    -0.6642    -2.3697     1.8297	H	1	noname	0.0601
72	H30     0.2550     0.1179     0.3775	H	1	noname	0.0658
73	H31     1.8770    -1.3883    -0.5819	H	1	noname	0.0587
74	H32     1.0002    -2.8140     0.2915	H	1	noname	0.0587
75	H33     2.2255     0.6486     4.2635	H	1	noname	0.0372
76	H34     3.4481    -0.4368     3.3194	H	1	noname	0.0372
77	H35     3.2573     2.4852     3.1669	H	1	noname	0.0272
78	H36     4.3802     1.5096     4.3295	H	1	noname	0.0272
79	H37     5.4468     2.4787     2.5076	H	1	noname	0.0267
80	H38     5.3708     0.5923     2.4927	H	1	noname	0.0267
81	H39     3.9702     0.6659     0.7008	H	1	noname	0.0266
82	H40     4.0584     2.5518     0.7126	H	1	noname	0.0266
83	H41     6.4300     2.4394     0.3632	H	1	noname	0.0267
84	H42     6.3341     0.5541     0.3377	H	1	noname	0.0267
85	H43     5.0188     0.6593    -1.5511	H	1	noname	0.0270
86	H44     5.1652     2.5415    -1.5355	H	1	noname	0.0270
87	H45     6.6014     1.4095    -3.1988	H	1	noname	0.0309
88	H46     7.5450     2.2591    -1.8016	H	1	noname	0.0309
89	H47     7.1272    -0.7865    -1.9930	H	1	noname	0.0572
90	H48     9.0891    -0.8617    -1.1727	H	1	noname	0.0572
91	H49    10.5742     1.1533    -1.5308	H	1	noname	0.0309
92	H50     9.0477     2.2067    -1.1781	H	1	noname	0.0309
93	H51    10.6516     2.0063     0.7308	H	1	noname	0.0270
94	H52     8.9625     1.2116     1.0132	H	1	noname	0.0270
95	H53    10.8336    -0.0020     1.9119	H	1	noname	0.0266
96	H54     9.9294    -0.8511     0.4886	H	1	noname	0.0266
97	H55    11.6475    -0.3213    -0.9210	H	1	noname	0.0266
98	H56    12.5510     0.5333     0.4995	H	1	noname	0.0266
99	H57    12.7743    -1.5264     1.5981	H	1	noname	0.0264
100	H58    11.8668    -2.3819     0.1808	H	1	noname	0.0264
101	H59    14.6576    -1.7692     0.4729	H	1	noname	0.0230
102	H60    13.8048    -2.5900    -0.8565	H	1	noname	0.0230
103	H61    13.9552    -0.8164    -0.8565	H	1	noname	0.0230
@<TRIPOS>BOND
1	1	2	1
2	2	3	1
3	3	4	1
4	4	5	1
5	5	6	1
6	6	7	1
7	7	8	1
8	8	9	1
9	9	10	1
10	10	11	1
11	11	12	1
12	12	13	1
13	13	14	1
14	14	15	2
15	14	16	1
16	16	17	1
17	17	18	1
18	18	19	1
19	19	20	1
20	20	21	1
21	21	22	1
22	21	23	1
23	21	24	2
24	18	25	1
25	25	26	1
26	26	27	2
27	26	28	1
28	28	29	1
29	29	30	1
30	30	31	1
31	31	32	1
32	32	33	1
33	33	34	1
34	34	35	1
35	35	36	2
36	36	37	1
37	37	38	1
38	38	39	1
39	39	40	1
40	40	41	1
41	41	42	1
42	1	43	1
43	1	44	1
44	1	45	1
45	2	46	1
46	2	47	1
47	3	48	1
48	3	49	1
49	4	50	1
50	4	51	1
51	5	52	1
52	5	53	1
53	6	54	1
54	6	55	1
55	7	56	1
56	7	57	1
57	8	58	1
58	8	59	1
59	9	60	1
60	9	61	1
61	10	62	1
62	10	63	1
63	11	64	1
64	11	65	1
65	12	66	1
66	12	67	1
67	13	68	1
68	13	69	1
69	17	70	1
70	17	71	1
71	18	72	1
72	19	73	1
73	19	74	1
74	28	75	1
75	28	76	1
76	29	77	1
77	29	78	1
78	30	79	1
79	30	80	1
80	31	81	1
81	31	82	1
82	32	83	1
83	32	84	1
84	33	85	1
85	33	86	1
86	34	87	1
87	34	88	1
88	35	89	1
89	36	90	1
90	37	91	1
91	37	92	1
92	38	93	1
93	38	94	1
94	39	95	1
95	39	96	1
96	40	97	1
97	40	98	1
98	41	99	1
99	41	100	1
100	42	101	1
101	42	102	1
102	42	103	1
@<TRIPOS>SUBSTRUCTURE
1	noname	1
