@<TRIPOS>MOLECULE

97 96 1
SMALL
USER_CHARGES
@<TRIPOS>ATOM
1	C1    -9.1925    -1.4311    -2.4449	C.3	1	noname	-0.0654
2	C2   -10.3832    -0.7873    -1.8276	C.3	1	noname	-0.0561
3	C3   -10.5484    -0.9611    -0.3803	C.3	1	noname	-0.0535
4	C4    -9.5623    -0.4225     0.5733	C.3	1	noname	-0.0533
5	C5    -8.1993    -0.9759     0.4530	C.3	1	noname	-0.0533
6	C6    -7.2474    -0.4126     1.5088	C.3	1	noname	-0.0533
7	C7    -7.1071     1.0554     1.3529	C.3	1	noname	-0.0533
8	C8    -6.5538     1.4341    -0.0087	C.3	1	noname	-0.0533
9	C9    -6.3871     2.8906    -0.1359	C.3	1	noname	-0.0528
10	C10    -5.4724     3.6480     0.7156	C.3	1	noname	-0.0439
11	C11    -4.0254     3.4594     0.6798	C.3	1	noname	0.0337
12	C12    -3.3837     2.2184     1.0454	C.2	1	noname	0.1407
13	O1    -3.9591     1.2079     1.4723	O.2	1	noname	-0.2540
14	O2    -1.9821     2.0474     0.9437	O.3	1	noname	-0.2051
15	C13    -1.3628     0.8298     1.3110	C.3	1	noname	0.0855
16	C14     0.1417     1.0653     1.0870	C.3	1	noname	0.1138
17	C15     0.3125     1.5432    -0.3011	C.3	1	noname	0.0721
18	O3     1.6395     1.8461    -0.6211	O.3	1	noname	-0.3095
19	P1     1.7625     2.3836    -2.2227	P	1	noname	-0.2980
20	O4     0.9044     1.2748    -3.1840	O.3	1	noname	-0.5247
21	O5     1.1712     3.9380    -2.4382	O.3	1	noname	-0.5247
22	O6     3.2187     2.3399    -2.6112	O.2	1	noname	-0.5247
23	O7     0.8294    -0.0988     1.4451	O.3	1	noname	-0.2013
24	C16     1.7158    -0.1702     2.5097	C.2	1	noname	0.1421
25	O8     1.8423     0.9389     3.1353	O.2	1	noname	-0.2537
26	C17     2.4692    -1.3447     2.9441	C.3	1	noname	0.0337
27	C18     2.3488    -2.5551     2.0855	C.3	1	noname	-0.0439
28	C19     2.8166    -2.3175     0.6807	C.3	1	noname	-0.0528
29	C20     4.2575    -1.8895     0.6389	C.3	1	noname	-0.0533
30	C21     5.2015    -2.9152     1.2461	C.3	1	noname	-0.0530
31	C22     5.1720    -4.2000     0.5084	C.3	1	noname	-0.0498
32	C23     5.6755    -4.1013    -0.9057	C.3	1	noname	-0.0350
33	C24     7.0866    -3.7440    -0.9229	C.2	1	noname	-0.0885
34	C25     7.5758    -2.7092    -1.5498	C.2	1	noname	-0.0885
35	C26     6.9312    -1.6795    -2.3489	C.3	1	noname	-0.0350
36	C27     7.2679    -0.3077    -1.8848	C.3	1	noname	-0.0498
37	C28     6.8857     0.1048    -0.5224	C.3	1	noname	-0.0530
38	C29     7.3867     1.5405    -0.2599	C.3	1	noname	-0.0535
39	C30     8.8824     1.6349    -0.3333	C.3	1	noname	-0.0561
40	C31     9.2580     3.0921    -0.0383	C.3	1	noname	-0.0654
41	H1    -8.5266    -1.7911    -1.6606	H	1	noname	0.0230
42	H2    -9.5125    -2.2698    -3.0632	H	1	noname	0.0230
43	H3    -8.6660    -0.7041    -3.0632	H	1	noname	0.0230
44	H4   -10.2406     0.2842    -1.9675	H	1	noname	0.0264
45	H5   -11.2460    -1.2847    -2.2706	H	1	noname	0.0264
46	H6   -11.4669    -0.4206    -0.1515	H	1	noname	0.0266
47	H7   -10.5007    -2.0404    -0.2357	H	1	noname	0.0266
48	H8    -9.4702     0.6360     0.3298	H	1	noname	0.0266
49	H9    -9.9148    -0.7263     1.5590	H	1	noname	0.0266
50	H10    -8.2990    -2.0423     0.6554	H	1	noname	0.0266
51	H11    -7.8318    -0.6370    -0.5156	H	1	noname	0.0266
52	H12    -7.7178    -0.5681     2.4797	H	1	noname	0.0266
53	H13    -6.2616    -0.8317     1.3075	H	1	noname	0.0266
54	H14    -8.1193     1.4569     1.4013	H	1	noname	0.0266
55	H15    -6.3634     1.3621     2.0884	H	1	noname	0.0266
56	H16    -5.5499     1.0141    -0.0709	H	1	noname	0.0266
57	H17    -7.3074     1.1563    -0.7456	H	1	noname	0.0266
58	H18    -5.9812     3.0255    -1.1385	H	1	noname	0.0267
59	H19    -7.3687     3.2937     0.1135	H	1	noname	0.0267
60	H20    -5.6092     4.6804     0.3939	H	1	noname	0.0272
61	H21    -5.7495     3.3510     1.7271	H	1	noname	0.0272
62	H22    -3.7690     3.5787    -0.3729	H	1	noname	0.0372
63	H23    -3.6479     4.1685     1.4165	H	1	noname	0.0372
64	H24    -1.5470     0.7004     2.3775	H	1	noname	0.0601
65	H25    -1.7142     0.0799     0.6023	H	1	noname	0.0601
66	H26     0.6503     1.7910     1.7216	H	1	noname	0.0658
67	H27     0.0476     0.7149    -0.9582	H	1	noname	0.0587
68	H28    -0.2184     2.4920    -0.3791	H	1	noname	0.0587
69	H29     3.5156    -1.0449     2.8866	H	1	noname	0.0372
70	H30     2.0330    -1.6194     3.9045	H	1	noname	0.0372
71	H31     3.0280    -3.2934     2.5117	H	1	noname	0.0272
72	H32     1.2823    -2.7701     2.0189	H	1	noname	0.0272
73	H33     2.7684    -3.2824     0.1759	H	1	noname	0.0267
74	H34     2.2355    -1.4758     0.3040	H	1	noname	0.0267
75	H35     4.5173    -1.8248    -0.4177	H	1	noname	0.0266
76	H36     4.3225    -1.0041     1.2713	H	1	noname	0.0266
77	H37     6.2114    -2.5247     1.1208	H	1	noname	0.0267
78	H38     4.8231    -3.1376     2.2438	H	1	noname	0.0267
79	H39     5.8687    -4.8540     1.0328	H	1	noname	0.0270
80	H40     4.1188    -4.4714     0.4364	H	1	noname	0.0270
81	H41     5.6140    -5.0998    -1.3386	H	1	noname	0.0309
82	H42     5.1502    -3.2700    -1.3760	H	1	noname	0.0309
83	H43     7.8617    -4.3136    -0.4103	H	1	noname	0.0572
84	H44     8.6534    -2.7044    -1.3861	H	1	noname	0.0572
85	H45     7.3478    -1.7793    -3.3512	H	1	noname	0.0309
86	H46     5.8607    -1.8077    -2.1883	H	1	noname	0.0309
87	H47     8.3573    -0.2726    -1.8843	H	1	noname	0.0270
88	H48     6.7016     0.3552    -2.5389	H	1	noname	0.0270
89	H49     5.7960     0.1295    -0.5110	H	1	noname	0.0266
90	H50     7.4229    -0.5599     0.1541	H	1	noname	0.0266
91	H51     7.0112     2.1584    -1.0756	H	1	noname	0.0266
92	H52     7.1256     1.7809     0.7707	H	1	noname	0.0266
93	H53     9.2790     1.0215     0.4757	H	1	noname	0.0264
94	H54     9.1633     1.4240    -1.3652	H	1	noname	0.0264
95	H55     9.2976     3.2459     1.0401	H	1	noname	0.0230
96	H56    10.2335     3.3109    -0.4726	H	1	noname	0.0230
97	H57     8.5099     3.7552    -0.4726	H	1	noname	0.0230
@<TRIPOS>BOND
1	1	2	1
2	2	3	1
3	3	4	1
4	4	5	1
5	5	6	1
6	6	7	1
7	7	8	1
8	8	9	1
9	9	10	1
10	10	11	1
11	11	12	1
12	12	13	2
13	12	14	1
14	14	15	1
15	15	16	1
16	16	17	1
17	17	18	1
18	18	19	1
19	19	20	1
20	19	21	1
21	19	22	2
22	16	23	1
23	23	24	1
24	24	25	2
25	24	26	1
26	26	27	1
27	27	28	1
28	28	29	1
29	29	30	1
30	30	31	1
31	31	32	1
32	32	33	1
33	33	34	2
34	34	35	1
35	35	36	1
36	36	37	1
37	37	38	1
38	38	39	1
39	39	40	1
40	1	41	1
41	1	42	1
42	1	43	1
43	2	44	1
44	2	45	1
45	3	46	1
46	3	47	1
47	4	48	1
48	4	49	1
49	5	50	1
50	5	51	1
51	6	52	1
52	6	53	1
53	7	54	1
54	7	55	1
55	8	56	1
56	8	57	1
57	9	58	1
58	9	59	1
59	10	60	1
60	10	61	1
61	11	62	1
62	11	63	1
63	15	64	1
64	15	65	1
65	16	66	1
66	17	67	1
67	17	68	1
68	26	69	1
69	26	70	1
70	27	71	1
71	27	72	1
72	28	73	1
73	28	74	1
74	29	75	1
75	29	76	1
76	30	77	1
77	30	78	1
78	31	79	1
79	31	80	1
80	32	81	1
81	32	82	1
82	33	83	1
83	34	84	1
84	35	85	1
85	35	86	1
86	36	87	1
87	36	88	1
88	37	89	1
89	37	90	1
90	38	91	1
91	38	92	1
92	39	93	1
93	39	94	1
94	40	95	1
95	40	96	1
96	40	97	1
@<TRIPOS>SUBSTRUCTURE
1	noname	1
