@<TRIPOS>MOLECULE

99 98 1
SMALL
USER_CHARGES
@<TRIPOS>ATOM
1	C1   -13.1227     0.6050     0.9202	C.3	1	noname	-0.0654
2	C2   -11.7870    -0.1120     0.7644	C.3	1	noname	-0.0561
3	C3   -11.2187    -0.3690     2.1336	C.3	1	noname	-0.0535
4	C4    -9.9021    -1.0881     2.0554	C.3	1	noname	-0.0533
5	C5    -8.8994    -0.2788     1.3006	C.3	1	noname	-0.0533
6	C6    -7.5306    -0.8846     1.1956	C.3	1	noname	-0.0533
7	C7    -7.5124    -2.1966     0.4902	C.3	1	noname	-0.0533
8	C8    -8.0101    -2.1724    -0.8996	C.3	1	noname	-0.0533
9	C9    -7.4100    -1.3204    -1.9184	C.3	1	noname	-0.0533
10	C10    -6.0160    -1.4401    -2.3508	C.3	1	noname	-0.0533
11	C11    -4.9756    -1.1717    -1.3199	C.3	1	noname	-0.0533
12	C12    -3.5676    -1.3045    -1.8856	C.3	1	noname	-0.0533
13	C13    -3.2718    -0.3699    -3.0083	C.3	1	noname	-0.0528
14	C14    -3.3955     1.0706    -2.6576	C.3	1	noname	-0.0439
15	C15    -2.5255     1.5686    -1.5641	C.3	1	noname	0.0337
16	C16    -1.0799     1.4268    -1.8388	C.2	1	noname	0.1421
17	O1    -0.6123     0.9504    -2.8784	O.2	1	noname	-0.2537
18	O2    -0.1536     1.8494    -0.8806	O.3	1	noname	-0.2013
19	C17     1.2364     1.7357    -1.0843	C.3	1	noname	0.1138
20	C18     1.9200     0.9176    -0.0111	C.3	1	noname	0.0855
21	O3     3.3013     0.8381    -0.2897	O.3	1	noname	-0.2051
22	C19     4.2206     0.2063     0.4870	C.2	1	noname	0.1407
23	O4     3.8953    -0.3665     1.5449	O.2	1	noname	-0.2540
24	C20     5.6973     0.1577     0.1181	C.3	1	noname	0.0337
25	C21     6.3213     1.3843     0.6786	C.3	1	noname	-0.0439
26	C22     6.3089     1.5757     2.1304	C.3	1	noname	-0.0528
27	C23     7.1216     0.9438     3.1267	C.3	1	noname	-0.0533
28	C24     7.3101    -0.4920     3.2438	C.3	1	noname	-0.0533
29	C25     8.1895    -1.2035     2.2682	C.3	1	noname	-0.0533
30	C26     9.6244    -0.6636     2.3432	C.3	1	noname	-0.0533
31	C27    10.4980    -1.3997     1.3841	C.3	1	noname	-0.0533
32	C28    10.1002    -1.2971    -0.0645	C.3	1	noname	-0.0535
33	C29    11.0802    -2.0717    -0.9395	C.3	1	noname	-0.0561
34	C30    11.0376    -3.5154    -0.4860	C.3	1	noname	-0.0654
35	C31     1.8903     3.1168    -1.1521	C.3	1	noname	0.0721
36	O5     3.2537     2.9105    -1.3596	O.3	1	noname	-0.3095
37	P1     3.9727     4.4457    -1.4312	P	1	noname	-0.2980
38	O6     3.1172     5.4574    -2.5093	O.3	1	noname	-0.5247
39	O7     5.5648     4.2882    -1.9227	O.3	1	noname	-0.5247
40	O8     3.8756     5.0862    -0.0657	O.2	1	noname	-0.5247
41	H1   -13.3486     0.7263     1.9796	H	1	noname	0.0230
42	H2   -13.0665     1.5849     0.4462	H	1	noname	0.0230
43	H3   -13.9084     0.0166     0.4462	H	1	noname	0.0230
44	H4   -11.9942    -1.0865     0.3222	H	1	noname	0.0264
45	H5   -11.1067     0.5789     0.2664	H	1	noname	0.0264
46	H6   -11.0087     0.6085     2.5678	H	1	noname	0.0266
47	H7   -11.9103    -1.0491     2.6309	H	1	noname	0.0266
48	H8    -9.5287    -1.1658     3.0765	H	1	noname	0.0266
49	H9   -10.0743    -1.9900     1.4680	H	1	noname	0.0266
50	H10    -9.2770    -0.2294     0.2793	H	1	noname	0.0266
51	H11    -8.7713     0.6361     1.8791	H	1	noname	0.0266
52	H12    -6.9478    -0.2057     0.5731	H	1	noname	0.0266
53	H13    -7.2147    -1.0936     2.2177	H	1	noname	0.0266
54	H14    -6.4617    -2.4767     0.4154	H	1	noname	0.0266
55	H15    -8.2089    -2.8340     1.0349	H	1	noname	0.0266
56	H16    -7.8309    -3.1824    -1.2683	H	1	noname	0.0266
57	H17    -9.0295    -1.7960    -0.8149	H	1	noname	0.0266
58	H18    -7.9822    -1.5530    -2.8165	H	1	noname	0.0266
59	H19    -7.4626    -0.3230    -1.4818	H	1	noname	0.0266
60	H20    -5.8956    -2.4888    -2.6226	H	1	noname	0.0266
61	H21    -5.8885    -0.6635    -3.1050	H	1	noname	0.0266
62	H22    -5.1011    -0.1270    -1.0355	H	1	noname	0.0266
63	H23    -5.0877    -1.9572    -0.5725	H	1	noname	0.0266
64	H24    -2.8890    -1.0155    -1.0830	H	1	noname	0.0266
65	H25    -3.5066    -2.3033    -2.3178	H	1	noname	0.0266
66	H26    -2.2209    -0.5244    -3.2528	H	1	noname	0.0267
67	H27    -4.0393    -0.5572    -3.7593	H	1	noname	0.0267
68	H28    -3.0723     1.6112    -3.5472	H	1	noname	0.0272
69	H29    -4.4139     1.1894    -2.2877	H	1	noname	0.0272
70	H30    -2.7110     2.6408    -1.4997	H	1	noname	0.0372
71	H31    -2.7282     0.9279    -0.7059	H	1	noname	0.0372
72	H32     1.2777     1.2037    -2.0348	H	1	noname	0.0658
73	H33     1.8420     1.4639     0.9289	H	1	noname	0.0601
74	H34     1.5483    -0.1048    -0.0798	H	1	noname	0.0601
75	H35     6.1417    -0.6908     0.6383	H	1	noname	0.0372
76	H36     5.7711     0.2313    -0.9669	H	1	noname	0.0372
77	H37     7.3781     1.3078     0.4228	H	1	noname	0.0272
78	H38     5.7248     2.2096     0.2898	H	1	noname	0.0272
79	H39     6.5896     2.6229     2.2435	H	1	noname	0.0267
80	H40     5.3096     1.2456     2.4141	H	1	noname	0.0267
81	H41     8.1205     1.3205     2.9068	H	1	noname	0.0266
82	H42     6.6286     1.2186     4.0592	H	1	noname	0.0266
83	H43     7.7987    -0.6148     4.2104	H	1	noname	0.0266
84	H44     6.3133    -0.9019     3.0809	H	1	noname	0.0266
85	H45     8.2222    -2.2432     2.5940	H	1	noname	0.0266
86	H46     7.8060    -0.9542     1.2788	H	1	noname	0.0266
87	H47     9.5976     0.3697     1.9974	H	1	noname	0.0266
88	H48    10.0037    -0.8956     3.3384	H	1	noname	0.0266
89	H49    11.4734    -0.9186     1.4562	H	1	noname	0.0266
90	H50    10.3888    -2.4523     1.6455	H	1	noname	0.0266
91	H51     9.1352    -1.7959    -0.1541	H	1	noname	0.0266
92	H52    10.1977    -0.2460    -0.3361	H	1	noname	0.0266
93	H53    10.6982    -2.0439    -1.9600	H	1	noname	0.0264
94	H54    12.0797    -1.6955    -0.7212	H	1	noname	0.0264
95	H55    11.0365    -3.5542     0.6033	H	1	noname	0.0230
96	H56    10.1332    -3.9895    -0.8674	H	1	noname	0.0230
97	H57    11.9124    -4.0420    -0.8674	H	1	noname	0.0230
98	H58     1.5296     3.6328    -2.0419	H	1	noname	0.0587
99	H59     1.8077     3.5928    -0.1750	H	1	noname	0.0587
@<TRIPOS>BOND
1	1	2	1
2	2	3	1
3	3	4	1
4	4	5	1
5	5	6	1
6	6	7	1
7	7	8	1
8	8	9	1
9	9	10	1
10	10	11	1
11	11	12	1
12	12	13	1
13	13	14	1
14	14	15	1
15	15	16	1
16	16	17	2
17	16	18	1
18	18	19	1
19	19	20	1
20	20	21	1
21	21	22	1
22	22	23	2
23	22	24	1
24	24	25	1
25	25	26	1
26	26	27	1
27	27	28	1
28	28	29	1
29	29	30	1
30	30	31	1
31	31	32	1
32	32	33	1
33	33	34	1
34	19	35	1
35	35	36	1
36	36	37	1
37	37	38	1
38	37	39	1
39	37	40	2
40	1	41	1
41	1	42	1
42	1	43	1
43	2	44	1
44	2	45	1
45	3	46	1
46	3	47	1
47	4	48	1
48	4	49	1
49	5	50	1
50	5	51	1
51	6	52	1
52	6	53	1
53	7	54	1
54	7	55	1
55	8	56	1
56	8	57	1
57	9	58	1
58	9	59	1
59	10	60	1
60	10	61	1
61	11	62	1
62	11	63	1
63	12	64	1
64	12	65	1
65	13	66	1
66	13	67	1
67	14	68	1
68	14	69	1
69	15	70	1
70	15	71	1
71	19	72	1
72	20	73	1
73	20	74	1
74	24	75	1
75	24	76	1
76	25	77	1
77	25	78	1
78	26	79	1
79	26	80	1
80	27	81	1
81	27	82	1
82	28	83	1
83	28	84	1
84	29	85	1
85	29	86	1
86	30	87	1
87	30	88	1
88	31	89	1
89	31	90	1
90	32	91	1
91	32	92	1
92	33	93	1
93	33	94	1
94	34	95	1
95	34	96	1
96	34	97	1
97	35	98	1
98	35	99	1
@<TRIPOS>SUBSTRUCTURE
1	noname	1
