REMARK  31 active torsions:
REMARK  status: ('A' for Active; 'I' for Inactive)
REMARK    1  A    between atoms: C2_2  and  C3_3 
REMARK    2  A    between atoms: C3_3  and  C4_4 
REMARK    3  A    between atoms: C4_4  and  C5_5 
REMARK    4  A    between atoms: C5_5  and  C6_6 
REMARK    5  A    between atoms: C6_6  and  C7_7 
REMARK    6  A    between atoms: C7_7  and  C8_8 
REMARK    7  A    between atoms: C8_8  and  C9_9 
REMARK    8  A    between atoms: C9_9  and  C10_10 
REMARK    9  A    between atoms: C10_10  and  C11_11 
REMARK   10  A    between atoms: C11_11  and  C12_12 
REMARK   11  A    between atoms: C12_12  and  C13_13 
REMARK   12  A    between atoms: C13_13  and  C14_14 
REMARK   13  A    between atoms: C14_14  and  C15_15 
REMARK   14  A    between atoms: C15_15  and  C16_16 
REMARK   15  A    between atoms: C16_16  and  O2_18 
REMARK   16  A    between atoms: O2_18  and  C17_19 
REMARK   17  A    between atoms: C17_19  and  C18_20 
REMARK   18  A    between atoms: C17_19  and  C31_35 
REMARK   19  A    between atoms: C18_20  and  O3_21 
REMARK   20  A    between atoms: O3_21  and  C19_22 
REMARK   21  A    between atoms: C19_22  and  C20_24 
REMARK   22  A    between atoms: C20_24  and  C21_25 
REMARK   23  A    between atoms: C21_25  and  C22_26 
REMARK   24  A    between atoms: C23_27  and  C24_28 
REMARK   25  A    between atoms: C24_28  and  C25_29 
REMARK   26  A    between atoms: C25_29  and  C26_30 
REMARK   27  A    between atoms: C26_30  and  C27_31 
REMARK   28  A    between atoms: C27_31  and  C28_32 
REMARK   29  A    between atoms: C28_32  and  C29_33 
REMARK   30  A    between atoms: C31_35  and  O5_36 
REMARK   31  A    between atoms: O5_36  and  P1_37 
ROOT
ATOM      1  C17 non d   1       1.236   1.736  -1.084  0.00  0.00     0.180 C 
ENDROOT
BRANCH   1   2
ATOM      2  O2  non d   1      -0.154   1.849  -0.881  0.00  0.00    -0.312 OA
BRANCH   2   3
ATOM      3  C16 non d   1      -1.080   1.427  -1.839  0.00  0.00     0.259 C 
ATOM      4  O1  non d   1      -0.612   0.950  -2.878  0.00  0.00    -0.265 OA
BRANCH   3   5
ATOM      5  C15 non d   1      -2.526   1.569  -1.564  0.00  0.00     0.111 C 
BRANCH   5   6
ATOM      6  C14 non d   1      -3.396   1.071  -2.658  0.00  0.00     0.010 C 
BRANCH   6   7
ATOM      7  C13 non d   1      -3.272  -0.370  -3.008  0.00  0.00     0.000 C 
BRANCH   7   8
ATOM      8  C12 non d   1      -3.568  -1.304  -1.886  0.00  0.00     0.000 C 
BRANCH   8   9
ATOM      9  C11 non d   1      -4.976  -1.172  -1.320  0.00  0.00     0.000 C 
BRANCH   9  10
ATOM     10  C10 non d   1      -6.016  -1.440  -2.351  0.00  0.00     0.000 C 
BRANCH  10  11
ATOM     11  C9  non d   1      -7.410  -1.320  -1.918  0.00  0.00     0.000 C 
BRANCH  11  12
ATOM     12  C8  non d   1      -8.010  -2.172  -0.900  0.00  0.00     0.000 C 
BRANCH  12  13
ATOM     13  C7  non d   1      -7.512  -2.197   0.490  0.00  0.00     0.000 C 
BRANCH  13  14
ATOM     14  C6  non d   1      -7.531  -0.885   1.196  0.00  0.00     0.000 C 
BRANCH  14  15
ATOM     15  C5  non d   1      -8.899  -0.279   1.301  0.00  0.00     0.000 C 
BRANCH  15  16
ATOM     16  C4  non d   1      -9.902  -1.088   2.055  0.00  0.00     0.000 C 
BRANCH  16  17
ATOM     17  C3  non d   1     -11.219  -0.369   2.134  0.00  0.00    -0.000 C 
BRANCH  17  18
ATOM     18  C2  non d   1     -11.787  -0.112   0.764  0.00  0.00    -0.005 C 
ATOM     19  C1  non d   1     -13.123   0.605   0.920  0.00  0.00     0.005 C 
ENDBRANCH  17  18
ENDBRANCH  16  17
ENDBRANCH  15  16
ENDBRANCH  14  15
ENDBRANCH  13  14
ENDBRANCH  12  13
ENDBRANCH  11  12
ENDBRANCH  10  11
ENDBRANCH   9  10
ENDBRANCH   8   9
ENDBRANCH   7   8
ENDBRANCH   6   7
ENDBRANCH   5   6
ENDBRANCH   3   5
ENDBRANCH   2   3
ENDBRANCH   1   2
BRANCH   1  20
ATOM     20  C18 non d   1       1.920   0.918  -0.011  0.00  0.00     0.213 C 
BRANCH  20  21
ATOM     21  O3  non d   1       3.301   0.838  -0.290  0.00  0.00    -0.319 OA
BRANCH  21  22
ATOM     22  C19 non d   1       4.221   0.206   0.487  0.00  0.00     0.258 C 
ATOM     23  O4  non d   1       3.895  -0.366   1.545  0.00  0.00    -0.265 OA
BRANCH  22  24
ATOM     24  C20 non d   1       5.697   0.158   0.118  0.00  0.00     0.111 C 
BRANCH  24  25
ATOM     25  C21 non d   1       6.321   1.384   0.679  0.00  0.00     0.010 C 
BRANCH  25  26
ATOM     26  C22 non d   1       6.309   1.576   2.130  0.00  0.00     0.000 C 
ATOM     27  C23 non d   1       7.122   0.944   3.127  0.00  0.00     0.000 C 
BRANCH  27  28
ATOM     28  C24 non d   1       7.310  -0.492   3.244  0.00  0.00     0.000 C 
BRANCH  28  29
ATOM     29  C25 non d   1       8.190  -1.204   2.268  0.00  0.00     0.000 C 
BRANCH  29  30
ATOM     30  C26 non d   1       9.624  -0.664   2.343  0.00  0.00     0.000 C 
BRANCH  30  31
ATOM     31  C27 non d   1      10.498  -1.400   1.384  0.00  0.00     0.000 C 
BRANCH  31  32
ATOM     32  C28 non d   1      10.100  -1.297  -0.065  0.00  0.00    -0.000 C 
BRANCH  32  33
ATOM     33  C29 non d   1      11.080  -2.072  -0.940  0.00  0.00    -0.005 C 
ATOM     34  C30 non d   1      11.038  -3.515  -0.486  0.00  0.00     0.005 C 
ENDBRANCH  32  33
ENDBRANCH  31  32
ENDBRANCH  30  31
ENDBRANCH  29  30
ENDBRANCH  28  29
ENDBRANCH  27  28
ENDBRANCH  25  26
ENDBRANCH  24  25
ENDBRANCH  22  24
ENDBRANCH  21  22
ENDBRANCH  20  21
ENDBRANCH   1  20
BRANCH   1  35
ATOM     35  C31 non d   1       1.890   3.117  -1.152  0.00  0.00     0.217 C 
BRANCH  35  36
ATOM     36  O5  non d   1       3.254   2.910  -1.360  0.00  0.00    -0.280 OA
BRANCH  36  37
ATOM     37  P1  non d   1       3.973   4.446  -1.431  0.00  0.00     0.422 P 
ATOM     38  O6  non d   1       3.117   5.457  -2.509  0.00  0.00    -0.617 OA
ATOM     39  O7  non d   1       5.565   4.288  -1.923  0.00  0.00    -0.617 OA
ATOM     40  O8  non d   1       3.876   5.086  -0.066  0.00  0.00    -0.617 OA
ENDBRANCH  36  37
ENDBRANCH  35  36
ENDBRANCH   1  35
TORSDOF 31
