REMARK WARNING: 32 MAX_TORS EXCEEDED!!!
REMARK  33 active torsions:
REMARK  status: ('A' for Active; 'I' for Inactive)
REMARK    1  A    between atoms: C2_2  and  C3_3 
REMARK    2  A    between atoms: C3_3  and  C4_4 
REMARK    3  A    between atoms: C4_4  and  C5_5 
REMARK    4  A    between atoms: C5_5  and  C6_6 
REMARK    5  A    between atoms: C6_6  and  C7_7 
REMARK    6  A    between atoms: C7_7  and  C8_8 
REMARK    7  A    between atoms: C8_8  and  C9_9 
REMARK    8  A    between atoms: C9_9  and  C10_10 
REMARK    9  A    between atoms: C10_10  and  C11_11 
REMARK   10  A    between atoms: C11_11  and  C12_12 
REMARK   11  A    between atoms: C12_12  and  C13_13 
REMARK   12  A    between atoms: C13_13  and  C14_14 
REMARK   13  A    between atoms: C14_14  and  O2_16 
REMARK   14  A    between atoms: O2_16  and  C15_17 
REMARK   15  A    between atoms: C15_17  and  C16_18 
REMARK   16  A    between atoms: C16_18  and  C17_19 
REMARK   17  A    between atoms: C16_18  and  O7_25 
REMARK   18  A    between atoms: C17_19  and  O3_20 
REMARK   19  A    between atoms: O3_20  and  P1_21 
REMARK   20  A    between atoms: O7_25  and  C18_26 
REMARK   21  A    between atoms: C18_26  and  C19_28 
REMARK   22  A    between atoms: C19_28  and  C20_29 
REMARK   23  A    between atoms: C20_29  and  C21_30 
REMARK   24  A    between atoms: C21_30  and  C22_31 
REMARK   25  A    between atoms: C22_31  and  C23_32 
REMARK   26  A    between atoms: C23_32  and  C24_33 
REMARK   27  A    between atoms: C24_33  and  C25_34 
REMARK   28  A    between atoms: C25_34  and  C26_35 
REMARK   29  A    between atoms: C27_36  and  C28_37 
REMARK   30  A    between atoms: C28_37  and  C29_38 
REMARK   31  A    between atoms: C29_38  and  C30_39 
REMARK   32  A    between atoms: C30_39  and  C31_40 
REMARK   33  A    between atoms: C31_40  and  C32_41 
ROOT
ATOM      1  C16 non d   1       0.402  -0.850   0.856  0.00  0.00     0.180 C 
ENDROOT
BRANCH   1   2
ATOM      2  C15 non d   1      -0.873  -1.367   1.458  0.00  0.00     0.213 C 
BRANCH   2   3
ATOM      3  O2  non d   1      -1.931  -1.556   0.585  0.00  0.00    -0.319 OA
BRANCH   3   4
ATOM      4  C14 non d   1      -2.562  -0.608  -0.181  0.00  0.00     0.258 C 
ATOM      5  O1  non d   1      -2.173   0.579  -0.126  0.00  0.00    -0.265 OA
BRANCH   4   6
ATOM      6  C13 non d   1      -3.716  -0.947  -1.089  0.00  0.00     0.111 C 
BRANCH   6   7
ATOM      7  C12 non d   1      -4.946  -0.884  -0.249  0.00  0.00     0.010 C 
BRANCH   7   8
ATOM      8  C11 non d   1      -6.235  -1.210  -0.997  0.00  0.00     0.000 C 
BRANCH   8   9
ATOM      9  C10 non d   1      -6.495  -0.274  -2.109  0.00  0.00     0.000 C 
BRANCH   9  10
ATOM     10  C9  non d   1      -7.735  -0.473  -2.875  0.00  0.00     0.000 C 
BRANCH  10  11
ATOM     11  C8  non d   1      -9.086  -0.188  -2.444  0.00  0.00     0.000 C 
BRANCH  11  12
ATOM     12  C7  non d   1      -9.826  -0.634  -1.290  0.00  0.00     0.000 C 
BRANCH  12  13
ATOM     13  C6  non d   1      -9.540  -0.201   0.082  0.00  0.00     0.000 C 
BRANCH  13  14
ATOM     14  C5  non d   1      -9.645   1.303   0.282  0.00  0.00     0.000 C 
BRANCH  14  15
ATOM     15  C4  non d   1     -11.016   1.846  -0.017  0.00  0.00     0.000 C 
BRANCH  15  16
ATOM     16  C3  non d   1     -12.081   1.246   0.855  0.00  0.00    -0.000 C 
BRANCH  16  17
ATOM     17  C2  non d   1     -11.850   1.496   2.321  0.00  0.00    -0.005 C 
ATOM     18  C1  non d   1     -12.977   0.843   3.088  0.00  0.00     0.005 C 
ENDBRANCH  16  17
ENDBRANCH  15  16
ENDBRANCH  14  15
ENDBRANCH  13  14
ENDBRANCH  12  13
ENDBRANCH  11  12
ENDBRANCH  10  11
ENDBRANCH   9  10
ENDBRANCH   8   9
ENDBRANCH   7   8
ENDBRANCH   6   7
ENDBRANCH   4   6
ENDBRANCH   3   4
ENDBRANCH   2   3
ENDBRANCH   1   2
BRANCH   1  19
ATOM     19  C17 non d   1       0.969  -1.826  -0.167  0.00  0.00     0.217 C 
BRANCH  19  20
ATOM     20  O3  non d   1       0.132  -1.978  -1.256  0.00  0.00    -0.280 OA
BRANCH  20  21
ATOM     21  P1  non d   1       0.894  -3.091  -2.311  0.00  0.00     0.422 P 
ATOM     22  O4  non d   1       0.013  -4.510  -2.398  0.00  0.00    -0.617 OA
ATOM     23  O5  non d   1       0.951  -2.346  -3.837  0.00  0.00    -0.617 OA
ATOM     24  O6  non d   1       2.338  -3.323  -1.902  0.00  0.00    -0.617 OA
ENDBRANCH  20  21
ENDBRANCH  19  20
ENDBRANCH   1  19
BRANCH   1  25
ATOM     25  O7  non d   1       1.319  -0.730   1.958  0.00  0.00    -0.312 OA
BRANCH  25  26
ATOM     26  C18 non d   1       1.970   0.470   2.250  0.00  0.00     0.259 C 
ATOM     27  O8  non d   1       1.754   1.450   1.530  0.00  0.00    -0.265 OA
BRANCH  26  28
ATOM     28  C19 non d   1       2.865   0.481   3.397  0.00  0.00     0.111 C 
BRANCH  28  29
ATOM     29  C20 non d   1       3.842   1.592   3.385  0.00  0.00     0.010 C 
BRANCH  29  30
ATOM     30  C21 non d   1       4.886   1.558   2.349  0.00  0.00     0.000 C 
BRANCH  30  31
ATOM     31  C22 non d   1       4.521   1.584   0.905  0.00  0.00     0.000 C 
BRANCH  31  32
ATOM     32  C23 non d   1       5.881   1.525   0.137  0.00  0.00     0.000 C 
BRANCH  32  33
ATOM     33  C24 non d   1       5.593   1.560  -1.334  0.00  0.00     0.004 C 
BRANCH  33  34
ATOM     34  C25 non d   1       6.881   1.466  -2.147  0.00  0.00     0.027 C 
BRANCH  34  35
ATOM     35  C26 non d   1       7.559   0.202  -1.836  0.00  0.00    -0.031 C 
ATOM     36  C27 non d   1       8.775   0.171  -1.328  0.00  0.00    -0.031 C 
BRANCH  36  37
ATOM     37  C28 non d   1       9.636   1.307  -0.997  0.00  0.00     0.027 C 
BRANCH  37  38
ATOM     38  C29 non d   1       9.926   1.225   0.504  0.00  0.00     0.004 C 
BRANCH  38  39
ATOM     39  C30 non d   1      10.591  -0.064   0.851  0.00  0.00     0.000 C 
BRANCH  39  40
ATOM     40  C31 non d   1      11.889  -0.255   0.140  0.00  0.00    -0.000 C 
BRANCH  40  41
ATOM     41  C32 non d   1      12.522  -1.588   0.539  0.00  0.00    -0.005 C 
ATOM     42  C33 non d   1      13.827  -1.699  -0.229  0.00  0.00     0.005 C 
ENDBRANCH  40  41
ENDBRANCH  39  40
ENDBRANCH  38  39
ENDBRANCH  37  38
ENDBRANCH  36  37
ENDBRANCH  34  35
ENDBRANCH  33  34
ENDBRANCH  32  33
ENDBRANCH  31  32
ENDBRANCH  30  31
ENDBRANCH  29  30
ENDBRANCH  28  29
ENDBRANCH  26  28
ENDBRANCH  25  26
ENDBRANCH   1  25
TORSDOF 33
