@<TRIPOS>MOLECULE

111 110 1
SMALL
USER_CHARGES
@<TRIPOS>ATOM
1	C1     0.9641    -0.9757     1.4534	C.3	1	noname	0.1138
2	C2     1.4783    -1.1864     0.0160	C.3	1	noname	0.0855
3	O1     0.5768    -0.5519    -0.8475	O.3	1	noname	-0.2051
4	C3    -0.7387    -0.8939    -0.9765	C.2	1	noname	0.1407
5	O2    -1.2103    -1.8362    -0.3071	O.2	1	noname	-0.2540
6	C4    -1.5789    -0.1039    -1.9338	C.3	1	noname	0.0337
7	C5    -3.0555    -0.4216    -1.7829	C.3	1	noname	-0.0439
8	C6    -3.5461    -0.0534    -0.3941	C.3	1	noname	-0.0528
9	C7    -3.3717     1.4282    -0.1338	C.3	1	noname	-0.0533
10	C8    -4.1708     2.2966    -1.0809	C.3	1	noname	-0.0533
11	C9    -5.6516     1.9422    -0.8553	C.3	1	noname	-0.0533
12	C10    -6.5680     2.7389    -1.7247	C.3	1	noname	-0.0533
13	C11    -7.9951     2.5289    -1.4263	C.3	1	noname	-0.0533
14	C12    -8.6342     1.2191    -1.5042	C.3	1	noname	-0.0533
15	C13    -8.2514     0.1192    -0.6042	C.3	1	noname	-0.0533
16	C14    -9.0926    -1.1530    -0.8388	C.3	1	noname	-0.0533
17	C15   -10.5465    -0.9538    -0.5842	C.3	1	noname	-0.0533
18	C16   -11.3001    -2.2538    -0.8202	C.3	1	noname	-0.0535
19	C17   -12.7764    -2.0713    -0.5562	C.3	1	noname	-0.0561
20	C18   -13.3915    -1.0236    -1.4459	C.3	1	noname	-0.0654
21	C19     0.7986     0.4914     1.6371	C.3	1	noname	0.0721
22	O3     0.3025     0.8886     2.8642	O.3	1	noname	-0.3095
23	P1     0.1660     2.5739     2.9527	P	1	noname	-0.2980
24	O4    -0.8840     3.0880     4.1493	O.3	1	noname	-0.5247
25	O5    -0.2603     3.2716     1.4941	O.3	1	noname	-0.5247
26	O6     1.5636     3.0880     3.3018	O.2	1	noname	-0.5247
27	O7     1.8447    -1.5928     2.3828	O.3	1	noname	-0.2013
28	C20     1.5366    -2.7299     3.0713	C.2	1	noname	0.1421
29	O8     0.3414    -3.1865     2.7619	O.2	1	noname	-0.2537
30	C21     2.2593    -3.5063     4.0545	C.3	1	noname	0.0337
31	C22     3.5989    -3.1875     4.5267	C.3	1	noname	-0.0439
32	C23     4.7784    -3.1726     3.6775	C.3	1	noname	-0.0528
33	C24     4.9004    -2.1731     2.5569	C.3	1	noname	-0.0533
34	C25     4.8545    -0.7801     3.0974	C.3	1	noname	-0.0533
35	C26     4.9309     0.3745     2.2014	C.3	1	noname	-0.0533
36	C27     6.1506     0.7346     1.4596	C.3	1	noname	-0.0533
37	C28     6.7136    -0.2396     0.5221	C.3	1	noname	-0.0533
38	C29     7.9234     0.3342    -0.2448	C.3	1	noname	-0.0533
39	C30     7.5818     1.5108    -1.0892	C.3	1	noname	-0.0533
40	C31     8.8323     2.0047    -1.7553	C.3	1	noname	-0.0533
41	C32     9.5284     0.9865    -2.6124	C.3	1	noname	-0.0533
42	C33    10.7628     1.6955    -3.1826	C.3	1	noname	-0.0535
43	C34    11.5618     0.7577    -4.0484	C.3	1	noname	-0.0561
44	C35    12.0186    -0.4180    -3.1945	C.3	1	noname	-0.0654
45	H1     0.0225    -1.4654     1.7018	H	1	noname	0.0658
46	H2     2.4216    -0.6529    -0.1007	H	1	noname	0.0601
47	H3     1.4189    -2.2476    -0.2256	H	1	noname	0.0601
48	H4    -1.4565     0.9414    -1.6503	H	1	noname	0.0372
49	H5    -1.2912    -0.4353    -2.9315	H	1	noname	0.0372
50	H6    -3.5847     0.2276    -2.4805	H	1	noname	0.0272
51	H7    -3.1494    -1.5042    -1.8676	H	1	noname	0.0272
52	H8    -4.6193    -0.2438    -0.3841	H	1	noname	0.0267
53	H9    -2.8945    -0.5690     0.3114	H	1	noname	0.0267
54	H10    -3.7835     1.6094     0.8590	H	1	noname	0.0266
55	H11    -2.3237     1.6478    -0.3375	H	1	noname	0.0266
56	H12    -4.0264     3.3306    -0.7676	H	1	noname	0.0266
57	H13    -3.9083     1.9925    -2.0942	H	1	noname	0.0266
58	H14    -5.7770     0.9062    -1.1699	H	1	noname	0.0266
59	H15    -5.8911     2.2341     0.1672	H	1	noname	0.0266
60	H16    -6.3708     3.7858    -1.4940	H	1	noname	0.0266
61	H17    -6.4225     2.3676    -2.7391	H	1	noname	0.0266
62	H18    -8.0883     2.7981    -0.3742	H	1	noname	0.0266
63	H19    -8.5136     3.1134    -2.1864	H	1	noname	0.0266
64	H20    -9.6762     1.4205    -1.2555	H	1	noname	0.0266
65	H21    -8.3712     0.8577    -2.4983	H	1	noname	0.0266
66	H22    -7.2230    -0.1248    -0.8706	H	1	noname	0.0266
67	H23    -8.4846     0.4752     0.3993	H	1	noname	0.0266
68	H24    -9.0163    -1.3856    -1.9009	H	1	noname	0.0266
69	H25    -8.7683    -1.8823    -0.0965	H	1	noname	0.0266
70	H26   -10.6417    -0.7177     0.4757	H	1	noname	0.0266
71	H27   -10.8936    -0.2431    -1.3342	H	1	noname	0.0266
72	H28   -11.2034    -2.4822    -1.8816	H	1	noname	0.0266
73	H29   -10.9397    -2.9630    -0.0750	H	1	noname	0.0266
74	H30   -13.2527    -3.0141    -0.8253	H	1	noname	0.0264
75	H31   -12.8589    -1.6900     0.4616	H	1	noname	0.0264
76	H32   -13.8473    -0.2472    -0.8315	H	1	noname	0.0230
77	H33   -12.6187    -0.5820    -2.0751	H	1	noname	0.0230
78	H34   -14.1537    -1.4832    -2.0751	H	1	noname	0.0230
79	H35     1.7961     0.9294     1.6028	H	1	noname	0.0587
80	H36     0.0365     0.8153     0.9283	H	1	noname	0.0587
81	H37     1.6427    -3.4169     4.9488	H	1	noname	0.0372
82	H38     2.3804    -4.4755     3.5706	H	1	noname	0.0372
83	H39     3.5133    -2.1541     4.8625	H	1	noname	0.0272
84	H40     3.8123    -3.9783     5.2458	H	1	noname	0.0272
85	H41     5.5866    -2.9283     4.3669	H	1	noname	0.0267
86	H42     4.7542    -4.1469     3.1894	H	1	noname	0.0267
87	H43     5.8928    -2.3046     2.1256	H	1	noname	0.0266
88	H44     4.0147    -2.2916     1.9327	H	1	noname	0.0266
89	H45     3.8683    -0.6911     3.5531	H	1	noname	0.0266
90	H46     5.7495    -0.6913     3.7133	H	1	noname	0.0266
91	H47     4.2072     0.1423     1.4201	H	1	noname	0.0266
92	H48     4.7649     1.2249     2.8627	H	1	noname	0.0266
93	H49     5.8607     1.5812     0.8373	H	1	noname	0.0266
94	H50     6.9177     0.8576     2.2241	H	1	noname	0.0266
95	H51     7.0829    -1.0560     1.1428	H	1	noname	0.0266
96	H52     5.9262    -0.4238    -0.2088	H	1	noname	0.0266
97	H53     8.6179     0.7117     0.5057	H	1	noname	0.0266
98	H54     8.2438    -0.4377    -0.9446	H	1	noname	0.0266
99	H55     6.9199     1.1515    -1.8771	H	1	noname	0.0266
100	H56     7.2472     2.2974    -0.4129	H	1	noname	0.0266
101	H57     8.5111     2.7930    -2.4361	H	1	noname	0.0266
102	H58     9.5261     2.2327    -0.9461	H	1	noname	0.0266
103	H59     9.8743     0.1911    -1.9523	H	1	noname	0.0266
104	H60     8.8622     0.7542    -3.4432	H	1	noname	0.0266
105	H61    10.3982     2.4825    -3.8427	H	1	noname	0.0266
106	H62    11.4019     1.9467    -2.3361	H	1	noname	0.0266
107	H63    10.8778     0.3632    -4.7998	H	1	noname	0.0264
108	H64    12.4566     1.2987    -4.3563	H	1	noname	0.0264
109	H65    11.9189    -0.1614    -2.1398	H	1	noname	0.0230
110	H66    11.4023    -1.2893    -3.4163	H	1	noname	0.0230
111	H67    13.0615    -0.6446    -3.4163	H	1	noname	0.0230
@<TRIPOS>BOND
1	1	2	1
2	2	3	1
3	3	4	1
4	4	5	2
5	4	6	1
6	6	7	1
7	7	8	1
8	8	9	1
9	9	10	1
10	10	11	1
11	11	12	1
12	12	13	1
13	13	14	1
14	14	15	1
15	15	16	1
16	16	17	1
17	17	18	1
18	18	19	1
19	19	20	1
20	1	21	1
21	21	22	1
22	22	23	1
23	23	24	1
24	23	25	1
25	23	26	2
26	1	27	1
27	27	28	1
28	28	29	2
29	28	30	1
30	30	31	1
31	31	32	1
32	32	33	1
33	33	34	1
34	34	35	1
35	35	36	1
36	36	37	1
37	37	38	1
38	38	39	1
39	39	40	1
40	40	41	1
41	41	42	1
42	42	43	1
43	43	44	1
44	1	45	1
45	2	46	1
46	2	47	1
47	6	48	1
48	6	49	1
49	7	50	1
50	7	51	1
51	8	52	1
52	8	53	1
53	9	54	1
54	9	55	1
55	10	56	1
56	10	57	1
57	11	58	1
58	11	59	1
59	12	60	1
60	12	61	1
61	13	62	1
62	13	63	1
63	14	64	1
64	14	65	1
65	15	66	1
66	15	67	1
67	16	68	1
68	16	69	1
69	17	70	1
70	17	71	1
71	18	72	1
72	18	73	1
73	19	74	1
74	19	75	1
75	20	76	1
76	20	77	1
77	20	78	1
78	21	79	1
79	21	80	1
80	30	81	1
81	30	82	1
82	31	83	1
83	31	84	1
84	32	85	1
85	32	86	1
86	33	87	1
87	33	88	1
88	34	89	1
89	34	90	1
90	35	91	1
91	35	92	1
92	36	93	1
93	36	94	1
94	37	95	1
95	37	96	1
96	38	97	1
97	38	98	1
98	39	99	1
99	39	100	1
100	40	101	1
101	40	102	1
102	41	103	1
103	41	104	1
104	42	105	1
105	42	106	1
106	43	107	1
107	43	108	1
108	44	109	1
109	44	110	1
110	44	111	1
@<TRIPOS>SUBSTRUCTURE
1	noname	1
