@<TRIPOS>MOLECULE

103 102 1
SMALL
USER_CHARGES
@<TRIPOS>ATOM
1	C1    14.8877     0.1307    -1.2919	C.3	1	noname	-0.0654
2	C2    13.3786     0.2580    -1.6465	C.3	1	noname	-0.0561
3	C3    13.0088     1.6907    -1.7501	C.3	1	noname	-0.0535
4	C4    11.6547     2.0868    -2.1140	C.3	1	noname	-0.0533
5	C5    10.4694     1.8123    -1.3148	C.3	1	noname	-0.0533
6	C6    10.0958     0.4141    -1.0296	C.3	1	noname	-0.0533
7	C7     8.7497     0.3894    -0.2367	C.3	1	noname	-0.0533
8	C8     8.4386    -1.0529     0.0327	C.3	1	noname	-0.0533
9	C9     7.1666    -1.2304     0.8018	C.3	1	noname	-0.0533
10	C10     5.9603    -0.6910     0.0399	C.3	1	noname	-0.0533
11	C11     4.7418    -0.8718     0.8886	C.3	1	noname	-0.0533
12	C12     3.4679    -0.3912     0.1998	C.3	1	noname	-0.0533
13	C13     3.5442     1.0405    -0.1700	C.3	1	noname	-0.0528
14	C14     2.3611     1.6438    -0.8459	C.3	1	noname	-0.0439
15	C15     1.0873     1.6330    -0.0911	C.3	1	noname	0.0337
16	C16     0.5727     0.2742     0.1617	C.2	1	noname	0.1421
17	O1     0.6577    -0.6637    -0.6855	O.2	1	noname	-0.2537
18	O2    -0.0375    -0.0412     1.3737	O.3	1	noname	-0.2013
19	C17    -0.5445    -1.3136     1.7002	C.3	1	noname	0.1138
20	C18    -1.9721    -1.1973     2.1446	C.3	1	noname	0.0855
21	O3    -2.8489    -0.6763     1.1850	O.3	1	noname	-0.2051
22	C19    -3.1003    -1.2299    -0.0471	C.2	1	noname	0.1407
23	O4    -2.5014    -2.2832    -0.3695	O.2	1	noname	-0.2540
24	C20    -4.0580    -0.6057    -0.9814	C.3	1	noname	0.0337
25	C21    -4.8006     0.5384    -0.3762	C.3	1	noname	-0.0439
26	C22    -5.6107     0.1742     0.8342	C.3	1	noname	-0.0528
27	C23    -6.6455    -0.8574     0.5563	C.3	1	noname	-0.0533
28	C24    -7.6898    -0.4994    -0.4403	C.3	1	noname	-0.0530
29	C25    -8.5023     0.7126    -0.0319	C.3	1	noname	-0.0498
30	C26    -9.5335     0.9335    -1.1495	C.3	1	noname	-0.0350
31	C27   -10.3949     2.0826    -0.8618	C.2	1	noname	-0.0885
32	C28   -11.6902     1.9461    -0.7374	C.2	1	noname	-0.0885
33	C29   -12.4822     0.7185    -0.8495	C.3	1	noname	-0.0350
34	C30   -13.5206     0.7794    -1.9565	C.3	1	noname	-0.0501
35	C31   -14.5199     1.8971    -1.7489	C.3	1	noname	-0.0559
36	C32   -15.2142     1.6276    -0.4261	C.3	1	noname	-0.0654
37	C33     0.3349    -1.7930     2.8624	C.3	1	noname	0.0721
38	O5    -0.0603    -3.0537     3.2898	O.3	1	noname	-0.3095
39	P1     0.8927    -3.6082     4.5667	P	1	noname	-0.2980
40	O6     2.3630    -2.7781     4.6586	O.3	1	noname	-0.5247
41	O7     1.1118    -5.2601     4.3760	O.3	1	noname	-0.5247
42	O8     0.1321    -3.3840     5.8581	O.2	1	noname	-0.5247
43	H1    15.0068     0.1207    -0.2085	H	1	noname	0.0230
44	H2    15.2821    -0.7957    -1.7094	H	1	noname	0.0230
45	H3    15.4317     0.9779    -1.7094	H	1	noname	0.0230
46	H4    13.2390    -0.1593    -2.6437	H	1	noname	0.0264
47	H5    12.8089    -0.1374    -0.8056	H	1	noname	0.0264
48	H6    13.1338     2.0824    -0.7406	H	1	noname	0.0266
49	H7    13.6222     2.0766    -2.5643	H	1	noname	0.0266
50	H8    11.7039     3.1756    -2.1274	H	1	noname	0.0266
51	H9    11.4695     1.5382    -3.0375	H	1	noname	0.0266
52	H10    10.6946     2.2465    -0.3407	H	1	noname	0.0266
53	H11     9.6457     2.2066    -1.9100	H	1	noname	0.0266
54	H12     9.9191    -0.0498    -2.0000	H	1	noname	0.0266
55	H13    10.8755     0.0263    -0.3740	H	1	noname	0.0266
56	H14     8.9195     0.8599     0.7317	H	1	noname	0.0266
57	H15     7.9639     0.7625    -0.8936	H	1	noname	0.0266
58	H16     8.2701    -1.5139    -0.9405	H	1	noname	0.0266
59	H17     9.2361    -1.4198     0.6788	H	1	noname	0.0266
60	H18     7.0208    -2.3067     0.8938	H	1	noname	0.0266
61	H19     7.2700    -0.6160     1.6962	H	1	noname	0.0266
62	H20     6.1037     0.3833    -0.0756	H	1	noname	0.0266
63	H21     5.8244    -1.3204    -0.8396	H	1	noname	0.0266
64	H22     4.6328    -1.9480     1.0232	H	1	noname	0.0266
65	H23     4.8868    -0.2261     1.7547	H	1	noname	0.0266
66	H24     3.3947    -0.9353    -0.7418	H	1	noname	0.0266
67	H25     2.6662    -0.4634     0.9347	H	1	noname	0.0266
68	H26     3.6308     1.5702     0.7787	H	1	noname	0.0267
69	H27     4.3500     1.0978    -0.9018	H	1	noname	0.0267
70	H28     2.6073     2.6981    -0.9718	H	1	noname	0.0272
71	H29     2.1783     1.0187    -1.7199	H	1	noname	0.0272
72	H30     1.3141     2.0534     0.8886	H	1	noname	0.0372
73	H31     0.3518     2.1159    -0.7344	H	1	noname	0.0372
74	H32    -0.5159    -1.9446     0.8119	H	1	noname	0.0658
75	H33    -2.3344    -2.2108     2.3164	H	1	noname	0.0601
76	H34    -1.9942    -0.4662     2.9528	H	1	noname	0.0601
77	H35    -3.4562    -0.1859    -1.7875	H	1	noname	0.0372
78	H36    -4.8028    -1.3712    -1.1991	H	1	noname	0.0372
79	H37    -4.0366     1.2325    -0.0260	H	1	noname	0.0272
80	H38    -5.5194     0.8551    -1.1320	H	1	noname	0.0272
81	H39    -4.9158    -0.2842     1.5378	H	1	noname	0.0267
82	H40    -6.1569     1.0744     1.1159	H	1	noname	0.0267
83	H41    -6.1044    -1.6950     0.1161	H	1	noname	0.0266
84	H42    -7.1800    -0.9880     1.4972	H	1	noname	0.0266
85	H43    -7.1503    -0.2177    -1.3446	H	1	noname	0.0267
86	H44    -8.3814    -1.3417    -0.4583	H	1	noname	0.0267
87	H45    -9.0472     0.4462     0.8738	H	1	noname	0.0270
88	H46    -7.8273     1.5685    -0.0300	H	1	noname	0.0270
89	H47    -8.9811     1.2019    -2.0500	H	1	noname	0.0309
90	H48   -10.1953     0.0674    -1.1539	H	1	noname	0.0309
91	H49   -10.0488     3.1080    -0.7316	H	1	noname	0.0572
92	H50   -12.1382     2.9172    -0.5269	H	1	noname	0.0572
93	H51   -11.7711    -0.0585    -1.1300	H	1	noname	0.0309
94	H52   -13.0302     0.6425     0.0897	H	1	noname	0.0309
95	H53   -12.9782     1.0250    -2.8695	H	1	noname	0.0269
96	H54   -14.0883    -0.1489    -1.8928	H	1	noname	0.0269
97	H55   -13.9532     2.8214    -1.6367	H	1	noname	0.0264
98	H56   -15.2707     1.8101    -2.5343	H	1	noname	0.0264
99	H57   -15.2956     0.5518    -0.2710	H	1	noname	0.0230
100	H58   -14.6347     2.0688     0.3849	H	1	noname	0.0230
101	H59   -16.2108     2.0688    -0.4423	H	1	noname	0.0230
102	H60     1.3489    -1.9330     2.4879	H	1	noname	0.0587
103	H61     0.1549    -1.1418     3.7177	H	1	noname	0.0587
@<TRIPOS>BOND
1	1	2	1
2	2	3	1
3	3	4	1
4	4	5	1
5	5	6	1
6	6	7	1
7	7	8	1
8	8	9	1
9	9	10	1
10	10	11	1
11	11	12	1
12	12	13	1
13	13	14	1
14	14	15	1
15	15	16	1
16	16	17	2
17	16	18	1
18	18	19	1
19	19	20	1
20	20	21	1
21	21	22	1
22	22	23	2
23	22	24	1
24	24	25	1
25	25	26	1
26	26	27	1
27	27	28	1
28	28	29	1
29	29	30	1
30	30	31	1
31	31	32	2
32	32	33	1
33	33	34	1
34	34	35	1
35	35	36	1
36	19	37	1
37	37	38	1
38	38	39	1
39	39	40	1
40	39	41	1
41	39	42	2
42	1	43	1
43	1	44	1
44	1	45	1
45	2	46	1
46	2	47	1
47	3	48	1
48	3	49	1
49	4	50	1
50	4	51	1
51	5	52	1
52	5	53	1
53	6	54	1
54	6	55	1
55	7	56	1
56	7	57	1
57	8	58	1
58	8	59	1
59	9	60	1
60	9	61	1
61	10	62	1
62	10	63	1
63	11	64	1
64	11	65	1
65	12	66	1
66	12	67	1
67	13	68	1
68	13	69	1
69	14	70	1
70	14	71	1
71	15	72	1
72	15	73	1
73	19	74	1
74	20	75	1
75	20	76	1
76	24	77	1
77	24	78	1
78	25	79	1
79	25	80	1
80	26	81	1
81	26	82	1
82	27	83	1
83	27	84	1
84	28	85	1
85	28	86	1
86	29	87	1
87	29	88	1
88	30	89	1
89	30	90	1
90	31	91	1
91	32	92	1
92	33	93	1
93	33	94	1
94	34	95	1
95	34	96	1
96	35	97	1
97	35	98	1
98	36	99	1
99	36	100	1
100	36	101	1
101	37	102	1
102	37	103	1
@<TRIPOS>SUBSTRUCTURE
1	noname	1
